Program Version,EnergyPlus, Version 22.2.0-56f3a890b4, YMD=2022.08.31 10:31
! <Version>, Version ID
 Version, 22.2
! <Timesteps per Hour>, #TimeSteps, Minutes per TimeStep {minutes}
 Timesteps per Hour,  4, 15
! <System Convergence Limits>, Minimum System TimeStep {minutes}, Max HVAC Iterations, Minimum Plant Iterations, Maximum Plant Iterations
 System Convergence Limits, 15, 5, 2, 8
! <Simulation Control>, Do Zone Sizing, Do System Sizing, Do Plant Sizing, Do Design Days, Do Weather Simulation, Do HVAC Sizing Simulation
 Simulation Control, Yes, Yes, Yes, No, Yes, No
! <Performance Precision Tradeoffs>, Use Coil Direct Simulation, Zone Radiant Exchange Algorithm, Override Mode, Number of Timestep In Hour, Force Euler Method, Minimum Number of Warmup Days, Force Suppress All Begin Environment Resets, Minimum System Timestep, MaxZoneTempDiff, MaxAllowedDelTemp
 Performance Precision Tradeoffs, No, ScriptF, Normal, 4, No, 1, No, 15.0, 0.300, 2.0000E-003
! <Output Reporting Tolerances>, Tolerance for Time Heating Setpoint Not Met, Tolerance for Zone Cooling Setpoint Not Met Time
 Output Reporting Tolerances, 0.556, 0.556, 
! <Site:GroundTemperature:BuildingSurface>,Jan{C},Feb{C},Mar{C},Apr{C},May{C},Jun{C},Jul{C},Aug{C},Sep{C},Oct{C},Nov{C},Dec{C}
 Site:GroundTemperature:BuildingSurface,  18.00,  18.00,  18.00,  18.00,  18.00,  18.00,  18.00,  18.00,  18.00,  18.00,  18.00,  18.00
! <Site:GroundTemperature:FCfactorMethod>,Jan{C},Feb{C},Mar{C},Apr{C},May{C},Jun{C},Jul{C},Aug{C},Sep{C},Oct{C},Nov{C},Dec{C}
 Site:GroundTemperature:FCfactorMethod,   7.10,   3.00,  -1.00,   0.80,  -0.20,   4.80,   6.10,  13.70,  22.20,  22.70,  21.70,  18.50
! <Site:GroundTemperature:Shallow>,Jan{C},Feb{C},Mar{C},Apr{C},May{C},Jun{C},Jul{C},Aug{C},Sep{C},Oct{C},Nov{C},Dec{C}
 Site:GroundTemperature:Shallow,  13.00,  13.00,  13.00,  13.00,  13.00,  13.00,  13.00,  13.00,  13.00,  13.00,  13.00,  13.00
! <Site:GroundTemperature:Deep>,Jan{C},Feb{C},Mar{C},Apr{C},May{C},Jun{C},Jul{C},Aug{C},Sep{C},Oct{C},Nov{C},Dec{C}
 Site:GroundTemperature:Deep,  16.00,  16.00,  16.00,  16.00,  16.00,  16.00,  16.00,  16.00,  16.00,  16.00,  16.00,  16.00
! <Site:GroundReflectance>,Jan{dimensionless},Feb{dimensionless},Mar{dimensionless},Apr{dimensionless},May{dimensionless},Jun{dimensionless},Jul{dimensionless},Aug{dimensionless},Sep{dimensionless},Oct{dimensionless},Nov{dimensionless},Dec{dimensionless}
 Site:GroundReflectance,  0.20,  0.20,  0.20,  0.20,  0.20,  0.20,  0.20,  0.20,  0.20,  0.20,  0.20,  0.20
! <Site:GroundReflectance:SnowModifier>, Normal, Daylighting {dimensionless}
 Site:GroundReflectance:SnowModifier,   1.000,   1.000
! <Site:GroundReflectance:Snow>,Jan{dimensionless},Feb{dimensionless},Mar{dimensionless},Apr{dimensionless},May{dimensionless},Jun{dimensionless},Jul{dimensionless},Aug{dimensionless},Sep{dimensionless},Oct{dimensionless},Nov{dimensionless},Dec{dimensionless}
 Site:GroundReflectance:Snow,  0.20,  0.20,  0.20,  0.20,  0.20,  0.20,  0.20,  0.20,  0.20,  0.20,  0.20,  0.20
! <Site:GroundReflectance:Snow:Daylighting>,Jan{dimensionless},Feb{dimensionless},Mar{dimensionless},Apr{dimensionless},May{dimensionless},Jun{dimensionless},Jul{dimensionless},Aug{dimensionless},Sep{dimensionless},Oct{dimensionless},Nov{dimensionless},Dec{dimensionless}
 Site:GroundReflectance:Snow:Daylighting,  0.20,  0.20,  0.20,  0.20,  0.20,  0.20,  0.20,  0.20,  0.20,  0.20,  0.20,  0.20
! <Environment:Weather Station>,Wind Sensor Height Above Ground {m},Wind Speed Profile Exponent {},Wind Speed Profile Boundary Layer Thickness {m},Air Temperature Sensor Height Above Ground {m},Wind Speed Modifier Coefficient-Internal,Temperature Modifier Coefficient-Internal
Environment:Weather Station,10.000,0.140,270.000,1.500,1.586,9.750E-003
! <Site:Location>, Location Name, Latitude {N+/S- Deg}, Longitude {E+/W- Deg},  Time Zone Number {GMT+/-}, Elevation {m},  Standard Pressure at Elevation {Pa}, Standard RhoAir at Elevation
Site:Location,Denver Centennial  Golden   Nr CO USA TMY3 WMO#=724666,39.74,-105.18,-7.00,1829.00,81198,0.9651
! <Site Water Mains Temperature Information>,Calculation Method{},Water Mains Temperature Schedule Name{},Annual Average Outdoor Air Temperature{C},Maximum Difference In Monthly Average Outdoor Air Temperatures{deltaC},Fixed Default Water Mains Temperature{C}
Site Water Mains Temperature Information,Correlation,NA,9.95,23.70,NA
! Schedule Details Report=Hourly =====================
! <ScheduleType>,Name,Limited? {Yes/No},Minimum,Maximum,Continuous? {Yes/No - Discrete}
! <DaySchedule>,Name,ScheduleType,Interpolated {Yes/No},Time (HH:MM) =>,01:00,02:00,03:00,04:00,05:00,06:00,07:00,08:00,09:00,10:00,11:00,12:00,13:00,14:00,15:00,16:00,17:00,18:00,19:00,20:00,21:00,22:00,23:00,24:00
! <WeekSchedule>,Name,Sunday,Monday,Tuesday,Wednesday,Thursday,Friday,Saturday,Holiday,SummerDesignDay,WinterDesignDay,CustomDay1,CustomDay2
! <Schedule>,Name,ScheduleType,{Until Date,WeekSchedule}** Repeated until Dec 31
ScheduleTypeLimits,ANY NUMBER,No,N/A,N/A,N/A
ScheduleTypeLimits,CONTROL TYPE,Average,0,4,No
ScheduleTypeLimits,FRACTION,Average,0.00,1.00,Yes
ScheduleTypeLimits,HUMIDITY,Average,10.00,90.00,Yes
ScheduleTypeLimits,NUMBER,No,N/A,N/A,N/A
ScheduleTypeLimits,ON/OFF,Average,0,1,No
ScheduleTypeLimits,TEMPERATURE,Average,-60.00,200.00,Yes
DaySchedule,ACTIVITY_SCH_dy_1,ANY NUMBER,No,Values:,120.00,120.00,120.00,120.00,120.00,120.00,120.00,120.00,120.00,120.00,120.00,120.00,120.00,120.00,120.00,120.00,120.00,120.00,120.00,120.00,120.00,120.00,120.00,120.00
DaySchedule,AIR_VELO_SCH_dy_1,ANY NUMBER,No,Values:,0.20,0.20,0.20,0.20,0.20,0.20,0.20,0.20,0.20,0.20,0.20,0.20,0.20,0.20,0.20,0.20,0.20,0.20,0.20,0.20,0.20,0.20,0.20,0.20
DaySchedule,ALWAYS_OFF_dy_1,FRACTION,No,Values:,0.00,0.00,0.00,0.00,0.00,0.00,0.00,0.00,0.00,0.00,0.00,0.00,0.00,0.00,0.00,0.00,0.00,0.00,0.00,0.00,0.00,0.00,0.00,0.00
DaySchedule,ALWAYS_ON_dy_1,FRACTION,No,Values:,1.00,1.00,1.00,1.00,1.00,1.00,1.00,1.00,1.00,1.00,1.00,1.00,1.00,1.00,1.00,1.00,1.00,1.00,1.00,1.00,1.00,1.00,1.00,1.00
DaySchedule,BLDG_EQUIP_SCH_dy_1,FRACTION,No,Values:,0.41,0.41,0.41,0.41,0.41,0.41,0.48,0.48,0.96,0.96,0.96,0.96,0.90,0.96,0.96,0.96,0.96,0.48,0.19,0.19,0.19,0.19,0.19,0.16
DaySchedule,BLDG_EQUIP_SCH_dy_2,FRACTION,No,Values:,0.16,0.16,0.16,0.16,0.16,0.16,0.16,0.16,0.16,0.16,0.16,0.16,0.16,0.16,0.16,0.16,0.16,0.16,0.16,0.16,0.16,0.16,0.16,0.16
DaySchedule,BLDG_EQUIP_SCH_dy_3,FRACTION,No,Values:,0.16,0.16,0.16,0.16,0.16,0.16,0.16,0.16,0.16,0.16,0.16,0.16,0.16,0.16,0.16,0.16,0.16,0.16,0.16,0.16,0.16,0.16,0.16,0.16
DaySchedule,BLDG_EQUIP_SCH_dy_4,FRACTION,No,Values:,0.00,0.00,0.00,0.00,0.00,0.00,0.00,0.00,0.00,0.00,0.00,0.00,0.00,0.00,0.00,0.00,0.00,0.00,0.00,0.00,0.00,0.00,0.00,0.00
DaySchedule,BLDG_EQUIP_SCH_dy_5,FRACTION,No,Values:,1.00,1.00,1.00,1.00,1.00,1.00,1.00,1.00,1.00,1.00,1.00,1.00,1.00,1.00,1.00,1.00,1.00,1.00,1.00,1.00,1.00,1.00,1.00,1.00
DaySchedule,BLDG_EQUIP_SCH_dy_6,FRACTION,No,Values:,0.00,0.00,0.00,0.00,0.00,0.00,0.00,0.00,0.00,0.00,0.00,0.00,0.00,0.00,0.00,0.00,0.00,0.00,0.00,0.00,0.00,0.00,0.00,0.00
DaySchedule,BLDG_EQUIP_SCH_dy_7,FRACTION,No,Values:,0.00,0.00,0.00,0.00,0.00,0.00,0.00,0.00,0.00,0.00,0.00,0.00,0.00,0.00,0.00,0.00,0.00,0.00,0.00,0.00,0.00,0.00,0.00,0.00
DaySchedule,BLDG_LIGHT_SCH_dy_1,FRACTION,No,Values:,0.18,0.18,0.18,0.18,0.18,0.23,0.18,0.33,0.70,0.70,0.70,0.70,0.62,0.70,0.70,0.70,0.70,0.47,0.33,0.33,0.25,0.25,0.18,0.18
DaySchedule,BLDG_LIGHT_SCH_dy_2,FRACTION,No,Values:,0.18,0.18,0.18,0.18,0.18,0.18,0.18,0.18,0.18,0.18,0.18,0.18,0.18,0.18,0.18,0.18,0.18,0.18,0.18,0.18,0.18,0.18,0.18,0.18
DaySchedule,BLDG_LIGHT_SCH_dy_3,FRACTION,No,Values:,0.18,0.18,0.18,0.18,0.18,0.18,0.18,0.18,0.18,0.18,0.18,0.18,0.18,0.18,0.18,0.18,0.18,0.18,0.18,0.18,0.18,0.18,0.18,0.18
DaySchedule,BLDG_LIGHT_SCH_dy_4,FRACTION,No,Values:,0.00,0.00,0.00,0.00,0.00,0.00,0.00,0.00,0.00,0.00,0.00,0.00,0.00,0.00,0.00,0.00,0.00,0.00,0.00,0.00,0.00,0.00,0.00,0.00
DaySchedule,BLDG_LIGHT_SCH_dy_5,FRACTION,No,Values:,1.00,1.00,1.00,1.00,1.00,1.00,1.00,1.00,1.00,1.00,1.00,1.00,1.00,1.00,1.00,1.00,1.00,1.00,1.00,1.00,1.00,1.00,1.00,1.00
DaySchedule,BLDG_LIGHT_SCH_dy_6,FRACTION,No,Values:,0.00,0.00,0.00,0.00,0.00,0.00,0.00,0.00,0.00,0.00,0.00,0.00,0.00,0.00,0.00,0.00,0.00,0.00,0.00,0.00,0.00,0.00,0.00,0.00
DaySchedule,BLDG_LIGHT_SCH_dy_7,FRACTION,No,Values:,0.00,0.00,0.00,0.00,0.00,0.00,0.00,0.00,0.00,0.00,0.00,0.00,0.00,0.00,0.00,0.00,0.00,0.00,0.00,0.00,0.00,0.00,0.00,0.00
DaySchedule,BLDG_OCC_SCH_dy_1,FRACTION,No,Values:,0.00,0.00,0.00,0.00,0.00,0.00,0.11,0.21,1.00,1.00,1.00,1.00,0.53,1.00,1.00,1.00,1.00,0.32,0.11,0.11,0.11,0.11,5.00E-002,0.00
DaySchedule,BLDG_OCC_SCH_dy_2,FRACTION,No,Values:,0.00,0.00,0.00,0.00,0.00,0.00,0.00,0.00,0.00,0.00,0.00,0.00,0.00,0.00,0.00,0.00,0.00,0.00,0.00,0.00,0.00,0.00,0.00,0.00
DaySchedule,BLDG_OCC_SCH_dy_3,FRACTION,No,Values:,0.00,0.00,0.00,0.00,0.00,0.00,0.00,0.00,0.00,0.00,0.00,0.00,0.00,0.00,0.00,0.00,0.00,0.00,0.00,0.00,0.00,0.00,0.00,0.00
DaySchedule,BLDG_OCC_SCH_dy_4,FRACTION,No,Values:,0.00,0.00,0.00,0.00,0.00,0.00,0.00,0.00,0.00,0.00,0.00,0.00,0.00,0.00,0.00,0.00,0.00,0.00,0.00,0.00,0.00,0.00,0.00,0.00
DaySchedule,BLDG_OCC_SCH_dy_5,FRACTION,No,Values:,1.00,1.00,1.00,1.00,1.00,1.00,1.00,1.00,1.00,1.00,1.00,1.00,1.00,1.00,1.00,1.00,1.00,1.00,1.00,1.00,1.00,1.00,1.00,1.00
DaySchedule,BLDG_OCC_SCH_dy_6,FRACTION,No,Values:,0.00,0.00,0.00,0.00,0.00,0.00,0.00,0.00,0.00,0.00,0.00,0.00,0.00,0.00,0.00,0.00,0.00,0.00,0.00,0.00,0.00,0.00,0.00,0.00
DaySchedule,BLDG_OCC_SCH_dy_7,FRACTION,No,Values:,0.00,0.00,0.00,0.00,0.00,0.00,0.00,0.00,0.00,0.00,0.00,0.00,0.00,0.00,0.00,0.00,0.00,0.00,0.00,0.00,0.00,0.00,0.00,0.00
DaySchedule,BLDG_OCC_SCH_W_SB_dy_1,FRACTION,No,Values:,0.00,0.00,0.00,0.00,0.00,0.00,0.11,0.21,1.00,1.00,0.00,1.00,0.00,1.00,0.00,1.00,1.00,0.32,0.11,0.11,0.11,0.11,5.00E-002,0.00
DaySchedule,BLDG_OCC_SCH_W_SB_dy_2,FRACTION,No,Values:,0.00,0.00,0.00,0.00,0.00,0.00,0.00,0.00,0.00,0.00,0.00,0.00,0.00,0.00,0.00,0.00,0.00,0.00,0.00,0.00,0.00,0.00,0.00,0.00
DaySchedule,BLDG_OCC_SCH_W_SB_dy_3,FRACTION,No,Values:,0.00,0.00,0.00,0.00,0.00,0.00,0.00,0.00,0.00,0.00,0.00,0.00,0.00,0.00,0.00,0.00,0.00,0.00,0.00,0.00,0.00,0.00,0.00,0.00
DaySchedule,BLDG_OCC_SCH_W_SB_dy_4,FRACTION,No,Values:,0.00,0.00,0.00,0.00,0.00,0.00,0.00,0.00,0.00,0.00,0.00,0.00,0.00,0.00,0.00,0.00,0.00,0.00,0.00,0.00,0.00,0.00,0.00,0.00
DaySchedule,BLDG_OCC_SCH_W_SB_dy_5,FRACTION,No,Values:,1.00,1.00,1.00,1.00,1.00,1.00,1.00,1.00,1.00,1.00,1.00,1.00,1.00,1.00,1.00,1.00,1.00,1.00,1.00,1.00,1.00,1.00,1.00,1.00
DaySchedule,BLDG_OCC_SCH_W_SB_dy_6,FRACTION,No,Values:,0.00,0.00,0.00,0.00,0.00,0.00,0.00,0.00,0.00,0.00,0.00,0.00,0.00,0.00,0.00,0.00,0.00,0.00,0.00,0.00,0.00,0.00,0.00,0.00
DaySchedule,BLDG_OCC_SCH_W_SB_dy_7,FRACTION,No,Values:,0.00,0.00,0.00,0.00,0.00,0.00,0.00,0.00,0.00,0.00,0.00,0.00,0.00,0.00,0.00,0.00,0.00,0.00,0.00,0.00,0.00,0.00,0.00,0.00
DaySchedule,BLDG_OCC_SCH_WO_SB_dy_1,FRACTION,No,Values:,0.00,0.00,0.00,0.00,0.00,0.00,0.11,0.21,1.00,1.00,1.00,1.00,0.61,1.00,1.00,1.00,1.00,0.32,0.11,0.11,0.11,0.11,5.00E-002,0.00
DaySchedule,BLDG_OCC_SCH_WO_SB_dy_2,FRACTION,No,Values:,0.00,0.00,0.00,0.00,0.00,0.00,0.00,0.00,0.00,0.00,0.00,0.00,0.00,0.00,0.00,0.00,0.00,0.00,0.00,0.00,0.00,0.00,0.00,0.00
DaySchedule,BLDG_OCC_SCH_WO_SB_dy_3,FRACTION,No,Values:,0.00,0.00,0.00,0.00,0.00,0.00,0.00,0.00,0.00,0.00,0.00,0.00,0.00,0.00,0.00,0.00,0.00,0.00,0.00,0.00,0.00,0.00,0.00,0.00
DaySchedule,BLDG_OCC_SCH_WO_SB_dy_4,FRACTION,No,Values:,0.00,0.00,0.00,0.00,0.00,0.00,0.00,0.00,0.00,0.00,0.00,0.00,0.00,0.00,0.00,0.00,0.00,0.00,0.00,0.00,0.00,0.00,0.00,0.00
DaySchedule,BLDG_OCC_SCH_WO_SB_dy_5,FRACTION,No,Values:,1.00,1.00,1.00,1.00,1.00,1.00,1.00,1.00,1.00,1.00,1.00,1.00,1.00,1.00,1.00,1.00,1.00,1.00,1.00,1.00,1.00,1.00,1.00,1.00
DaySchedule,BLDG_OCC_SCH_WO_SB_dy_6,FRACTION,No,Values:,0.00,0.00,0.00,0.00,0.00,0.00,0.00,0.00,0.00,0.00,0.00,0.00,0.00,0.00,0.00,0.00,0.00,0.00,0.00,0.00,0.00,0.00,0.00,0.00
DaySchedule,BLDG_OCC_SCH_WO_SB_dy_7,FRACTION,No,Values:,0.00,0.00,0.00,0.00,0.00,0.00,0.00,0.00,0.00,0.00,0.00,0.00,0.00,0.00,0.00,0.00,0.00,0.00,0.00,0.00,0.00,0.00,0.00,0.00
DaySchedule,BLDG_SWH_SCH_dy_1,FRACTION,No,Values:,0.00,0.00,0.00,0.00,0.00,0.00,0.00,0.27,0.55,0.64,0.64,0.82,1.00,0.91,0.55,0.55,0.73,0.37,0.37,0.18,0.27,9.00E-002,0.00,0.00
DaySchedule,BLDG_SWH_SCH_dy_2,FRACTION,No,Values:,0.00,0.00,0.00,0.00,0.00,0.00,0.00,0.00,0.00,0.00,0.00,0.00,0.00,0.00,0.00,0.00,0.00,0.00,0.00,0.00,0.00,0.00,0.00,0.00
DaySchedule,BLDG_SWH_SCH_dy_3,FRACTION,No,Values:,0.00,0.00,0.00,0.00,0.00,0.00,0.00,0.00,0.00,0.00,0.00,0.00,0.00,0.00,0.00,0.00,0.00,0.00,0.00,0.00,0.00,0.00,0.00,0.00
DaySchedule,BLDG_SWH_SCH_dy_4,FRACTION,No,Values:,0.00,0.00,0.00,0.00,0.00,0.00,0.00,0.27,0.55,0.64,0.64,0.82,1.00,0.91,0.55,0.55,0.73,0.37,0.37,0.18,0.27,9.00E-002,0.00,0.00
DaySchedule,BLDG_SWH_SCH_dy_5,FRACTION,No,Values:,0.00,0.00,0.00,0.00,0.00,0.00,0.00,0.27,0.55,0.64,0.64,0.82,1.00,0.91,0.55,0.55,0.73,0.37,0.37,0.18,0.27,9.00E-002,0.00,0.00
DaySchedule,BLDG_SWH_SCH_dy_6,FRACTION,No,Values:,0.00,0.00,0.00,0.00,0.00,0.00,0.00,0.00,0.00,0.00,0.00,0.00,0.00,0.00,0.00,0.00,0.00,0.00,0.00,0.00,0.00,0.00,0.00,0.00
DaySchedule,BLDG_SWH_SCH_dy_7,FRACTION,No,Values:,0.00,0.00,0.00,0.00,0.00,0.00,0.00,0.00,0.00,0.00,0.00,0.00,0.00,0.00,0.00,0.00,0.00,0.00,0.00,0.00,0.00,0.00,0.00,0.00
DaySchedule,BINARY OCCUPANCY_dy_1,FRACTION,No,Values:,0.00,0.00,0.00,0.00,0.00,0.00,1.00,1.00,1.00,1.00,1.00,1.00,1.00,1.00,1.00,1.00,1.00,1.00,1.00,1.00,1.00,1.00,1.00,0.00
DaySchedule,BINARY OCCUPANCY_dy_2,FRACTION,No,Values:,0.00,0.00,0.00,0.00,0.00,0.00,0.00,0.00,0.00,0.00,0.00,0.00,0.00,0.00,0.00,0.00,0.00,0.00,0.00,0.00,0.00,0.00,0.00,0.00
DaySchedule,BINARY OCCUPANCY_dy_3,FRACTION,No,Values:,0.00,0.00,0.00,0.00,0.00,0.00,0.00,0.00,0.00,0.00,0.00,0.00,0.00,0.00,0.00,0.00,0.00,0.00,0.00,0.00,0.00,0.00,0.00,0.00
DaySchedule,BINARY OCCUPANCY_dy_4,FRACTION,No,Values:,0.00,0.00,0.00,0.00,0.00,0.00,0.00,0.00,0.00,0.00,0.00,0.00,0.00,0.00,0.00,0.00,0.00,0.00,0.00,0.00,0.00,0.00,0.00,0.00
DaySchedule,BINARY OCCUPANCY_dy_5,FRACTION,No,Values:,1.00,1.00,1.00,1.00,1.00,1.00,1.00,1.00,1.00,1.00,1.00,1.00,1.00,1.00,1.00,1.00,1.00,1.00,1.00,1.00,1.00,1.00,1.00,1.00
DaySchedule,BINARY OCCUPANCY_dy_6,FRACTION,No,Values:,0.00,0.00,0.00,0.00,0.00,0.00,0.00,0.00,0.00,0.00,0.00,0.00,0.00,0.00,0.00,0.00,0.00,0.00,0.00,0.00,0.00,0.00,0.00,0.00
DaySchedule,BINARY OCCUPANCY_dy_7,FRACTION,No,Values:,0.00,0.00,0.00,0.00,0.00,0.00,0.00,0.00,0.00,0.00,0.00,0.00,0.00,0.00,0.00,0.00,0.00,0.00,0.00,0.00,0.00,0.00,0.00,0.00
DaySchedule,CLGSETP_SCH_NO_OPTIMUM_dy_1,TEMPERATURE,No,Values:,29.44,29.44,29.44,29.44,29.44,29.44,23.89,23.89,23.89,23.89,23.89,23.89,23.89,23.89,23.89,23.89,23.89,23.89,29.44,29.44,29.44,29.44,29.44,29.44
DaySchedule,CLGSETP_SCH_NO_OPTIMUM_dy_2,TEMPERATURE,No,Values:,29.44,29.44,29.44,29.44,29.44,29.44,29.44,29.44,29.44,29.44,29.44,29.44,29.44,29.44,29.44,29.44,29.44,29.44,29.44,29.44,29.44,29.44,29.44,29.44
DaySchedule,CLGSETP_SCH_NO_OPTIMUM_dy_3,TEMPERATURE,No,Values:,29.44,29.44,29.44,29.44,29.44,29.44,29.44,29.44,29.44,29.44,29.44,29.44,29.44,29.44,29.44,29.44,29.44,29.44,29.44,29.44,29.44,29.44,29.44,29.44
DaySchedule,CLGSETP_SCH_NO_OPTIMUM_dy_4,TEMPERATURE,No,Values:,29.44,29.44,29.44,29.44,29.44,29.44,29.44,29.44,29.44,29.44,29.44,29.44,29.44,29.44,29.44,29.44,29.44,29.44,29.44,29.44,29.44,29.44,29.44,29.44
DaySchedule,CLGSETP_SCH_NO_OPTIMUM_dy_5,TEMPERATURE,No,Values:,23.89,23.89,23.89,23.89,23.89,23.89,23.89,23.89,23.89,23.89,23.89,23.89,23.89,23.89,23.89,23.89,23.89,23.89,23.89,23.89,23.89,23.89,23.89,23.89
DaySchedule,CLGSETP_SCH_NO_OPTIMUM_dy_6,TEMPERATURE,No,Values:,29.44,29.44,29.44,29.44,29.44,29.44,29.44,29.44,29.44,29.44,29.44,29.44,29.44,29.44,29.44,29.44,29.44,29.44,29.44,29.44,29.44,29.44,29.44,29.44
DaySchedule,CLGSETP_SCH_NO_OPTIMUM_dy_7,TEMPERATURE,No,Values:,29.44,29.44,29.44,29.44,29.44,29.44,29.44,29.44,29.44,29.44,29.44,29.44,29.44,29.44,29.44,29.44,29.44,29.44,29.44,29.44,29.44,29.44,29.44,29.44
DaySchedule,CLGSETP_SCH_NO_OPTIMUM_W_SB_dy_1,TEMPERATURE,No,Values:,29.44,29.44,29.44,29.44,29.44,29.44,23.89,23.89,23.89,23.89,24.45,23.89,24.45,23.89,24.45,23.89,23.89,23.89,29.44,29.44,29.44,29.44,29.44,29.44
DaySchedule,CLGSETP_SCH_NO_OPTIMUM_W_SB_dy_2,TEMPERATURE,No,Values:,29.44,29.44,29.44,29.44,29.44,29.44,29.44,29.44,29.44,29.44,29.44,29.44,29.44,29.44,29.44,29.44,29.44,29.44,29.44,29.44,29.44,29.44,29.44,29.44
DaySchedule,CLGSETP_SCH_NO_OPTIMUM_W_SB_dy_3,TEMPERATURE,No,Values:,29.44,29.44,29.44,29.44,29.44,29.44,29.44,29.44,29.44,29.44,29.44,29.44,29.44,29.44,29.44,29.44,29.44,29.44,29.44,29.44,29.44,29.44,29.44,29.44
DaySchedule,CLGSETP_SCH_NO_OPTIMUM_W_SB_dy_4,TEMPERATURE,No,Values:,29.44,29.44,29.44,29.44,29.44,29.44,29.44,29.44,29.44,29.44,29.44,29.44,29.44,29.44,29.44,29.44,29.44,29.44,29.44,29.44,29.44,29.44,29.44,29.44
DaySchedule,CLGSETP_SCH_NO_OPTIMUM_W_SB_dy_5,TEMPERATURE,No,Values:,23.89,23.89,23.89,23.89,23.89,23.89,23.89,23.89,23.89,23.89,23.89,23.89,23.89,23.89,23.89,23.89,23.89,23.89,23.89,23.89,23.89,23.89,23.89,23.89
DaySchedule,CLGSETP_SCH_NO_OPTIMUM_W_SB_dy_6,TEMPERATURE,No,Values:,29.44,29.44,29.44,29.44,29.44,29.44,29.44,29.44,29.44,29.44,29.44,29.44,29.44,29.44,29.44,29.44,29.44,29.44,29.44,29.44,29.44,29.44,29.44,29.44
DaySchedule,CLGSETP_SCH_NO_OPTIMUM_W_SB_dy_7,TEMPERATURE,No,Values:,29.44,29.44,29.44,29.44,29.44,29.44,29.44,29.44,29.44,29.44,29.44,29.44,29.44,29.44,29.44,29.44,29.44,29.44,29.44,29.44,29.44,29.44,29.44,29.44
DaySchedule,CLGSETP_SCH_NO_SETBACK_dy_1,TEMPERATURE,No,Values:,23.89,23.89,23.89,23.89,23.89,23.89,23.89,23.89,23.89,23.89,23.89,23.89,23.89,23.89,23.89,23.89,23.89,23.89,23.89,23.89,23.89,23.89,23.89,23.89
DaySchedule,CLGSETP_SCH_NO_SETBACK_dy_2,TEMPERATURE,No,Values:,23.89,23.89,23.89,23.89,23.89,23.89,23.89,23.89,23.89,23.89,23.89,23.89,23.89,23.89,23.89,23.89,23.89,23.89,23.89,23.89,23.89,23.89,23.89,23.89
DaySchedule,CLGSETP_SCH_NO_SETBACK_dy_3,TEMPERATURE,No,Values:,23.89,23.89,23.89,23.89,23.89,23.89,23.89,23.89,23.89,23.89,23.89,23.89,23.89,23.89,23.89,23.89,23.89,23.89,23.89,23.89,23.89,23.89,23.89,23.89
DaySchedule,CLGSETP_SCH_NO_SETBACK_dy_4,TEMPERATURE,No,Values:,29.44,29.44,29.44,29.44,29.44,29.44,29.44,29.44,29.44,29.44,29.44,29.44,29.44,29.44,29.44,29.44,29.44,29.44,29.44,29.44,29.44,29.44,29.44,29.44
DaySchedule,CLGSETP_SCH_NO_SETBACK_dy_5,TEMPERATURE,No,Values:,23.89,23.89,23.89,23.89,23.89,23.89,23.89,23.89,23.89,23.89,23.89,23.89,23.89,23.89,23.89,23.89,23.89,23.89,23.89,23.89,23.89,23.89,23.89,23.89
DaySchedule,CLGSETP_SCH_NO_SETBACK_dy_6,TEMPERATURE,No,Values:,23.89,23.89,23.89,23.89,23.89,23.89,23.89,23.89,23.89,23.89,23.89,23.89,23.89,23.89,23.89,23.89,23.89,23.89,23.89,23.89,23.89,23.89,23.89,23.89
DaySchedule,CLGSETP_SCH_NO_SETBACK_dy_7,TEMPERATURE,No,Values:,23.89,23.89,23.89,23.89,23.89,23.89,23.89,23.89,23.89,23.89,23.89,23.89,23.89,23.89,23.89,23.89,23.89,23.89,23.89,23.89,23.89,23.89,23.89,23.89
DaySchedule,CLGSETP_SCH_YES_OPTIMUM_dy_1,TEMPERATURE,No,Values:,29.44,29.44,29.44,29.44,29.44,29.44,27.80,25.60,23.89,23.89,23.89,23.89,23.89,23.89,23.89,23.89,23.89,23.89,29.44,29.44,29.44,29.44,29.44,29.44
DaySchedule,CLGSETP_SCH_YES_OPTIMUM_dy_2,TEMPERATURE,No,Values:,29.44,29.44,29.44,29.44,29.44,29.44,29.44,29.44,29.44,29.44,29.44,29.44,29.44,29.44,29.44,29.44,29.44,29.44,29.44,29.44,29.44,29.44,29.44,29.44
DaySchedule,CLGSETP_SCH_YES_OPTIMUM_dy_3,TEMPERATURE,No,Values:,29.44,29.44,29.44,29.44,29.44,29.44,29.44,29.44,29.44,29.44,29.44,29.44,29.44,29.44,29.44,29.44,29.44,29.44,29.44,29.44,29.44,29.44,29.44,29.44
DaySchedule,CLGSETP_SCH_YES_OPTIMUM_dy_4,TEMPERATURE,No,Values:,29.44,29.44,29.44,29.44,29.44,29.44,29.44,29.44,29.44,29.44,29.44,29.44,29.44,29.44,29.44,29.44,29.44,29.44,29.44,29.44,29.44,29.44,29.44,29.44
DaySchedule,CLGSETP_SCH_YES_OPTIMUM_dy_5,TEMPERATURE,No,Values:,23.89,23.89,23.89,23.89,23.89,23.89,23.89,23.89,23.89,23.89,23.89,23.89,23.89,23.89,23.89,23.89,23.89,23.89,23.89,23.89,23.89,23.89,23.89,23.89
DaySchedule,CLGSETP_SCH_YES_OPTIMUM_dy_6,TEMPERATURE,No,Values:,29.44,29.44,29.44,29.44,29.44,29.44,29.44,29.44,29.44,29.44,29.44,29.44,29.44,29.44,29.44,29.44,29.44,29.44,29.44,29.44,29.44,29.44,29.44,29.44
DaySchedule,CLGSETP_SCH_YES_OPTIMUM_dy_7,TEMPERATURE,No,Values:,29.44,29.44,29.44,29.44,29.44,29.44,29.44,29.44,29.44,29.44,29.44,29.44,29.44,29.44,29.44,29.44,29.44,29.44,29.44,29.44,29.44,29.44,29.44,29.44
DaySchedule,CLOTHING_SCH_dy_1,ANY NUMBER,No,Values:,1.00,1.00,1.00,1.00,1.00,1.00,1.00,1.00,1.00,1.00,1.00,1.00,1.00,1.00,1.00,1.00,1.00,1.00,1.00,1.00,1.00,1.00,1.00,1.00
DaySchedule,CLOTHING_SCH_dy_2,ANY NUMBER,No,Values:,0.50,0.50,0.50,0.50,0.50,0.50,0.50,0.50,0.50,0.50,0.50,0.50,0.50,0.50,0.50,0.50,0.50,0.50,0.50,0.50,0.50,0.50,0.50,0.50
DaySchedule,CLOTHING_SCH_dy_3,ANY NUMBER,No,Values:,1.00,1.00,1.00,1.00,1.00,1.00,1.00,1.00,1.00,1.00,1.00,1.00,1.00,1.00,1.00,1.00,1.00,1.00,1.00,1.00,1.00,1.00,1.00,1.00
DaySchedule,CW-LOOP-TEMP-SCHEDULE_dy_1,TEMPERATURE,No,Values:,6.70,6.70,6.70,6.70,6.70,6.70,6.70,6.70,6.70,6.70,6.70,6.70,6.70,6.70,6.70,6.70,6.70,6.70,6.70,6.70,6.70,6.70,6.70,6.70
DaySchedule,COOLINGCOILAVAILSCHED_dy_1,FRACTION,No,Values:,1.00,1.00,1.00,1.00,1.00,1.00,1.00,1.00,1.00,1.00,1.00,1.00,1.00,1.00,1.00,1.00,1.00,1.00,1.00,1.00,1.00,1.00,1.00,1.00
DaySchedule,CORE_ZN WATER EQUIPMENT HOT SUPPLY TEMP SCHED_dy_1,TEMPERATURE,No,Values:,55.00,55.00,55.00,55.00,55.00,55.00,55.00,55.00,55.00,55.00,55.00,55.00,55.00,55.00,55.00,55.00,55.00,55.00,55.00,55.00,55.00,55.00,55.00,55.00
DaySchedule,CORE_ZN WATER EQUIPMENT LATENT FRACT SCHED_dy_1,FRACTION,No,Values:,5.00E-002,5.00E-002,5.00E-002,5.00E-002,5.00E-002,5.00E-002,5.00E-002,5.00E-002,5.00E-002,5.00E-002,5.00E-002,5.00E-002,5.00E-002,5.00E-002,5.00E-002,5.00E-002,5.00E-002,5.00E-002,5.00E-002,5.00E-002,5.00E-002,5.00E-002,5.00E-002,5.00E-002
DaySchedule,CORE_ZN WATER EQUIPMENT SENSIBLE FRACT SCHED_dy_1,FRACTION,No,Values:,0.20,0.20,0.20,0.20,0.20,0.20,0.20,0.20,0.20,0.20,0.20,0.20,0.20,0.20,0.20,0.20,0.20,0.20,0.20,0.20,0.20,0.20,0.20,0.20
DaySchedule,DUAL ZONE CONTROL TYPE SCHED_dy_1,CONTROL TYPE,No,Values:,4.00,4.00,4.00,4.00,4.00,4.00,4.00,4.00,4.00,4.00,4.00,4.00,4.00,4.00,4.00,4.00,4.00,4.00,4.00,4.00,4.00,4.00,4.00,4.00
DaySchedule,EXTERIOR_LGT_189_1_dy_1,FRACTION,No,Values:,0.50,0.50,0.50,0.50,0.50,0.50,0.50,0.50,0.50,1.00,1.00,1.00,1.00,1.00,1.00,1.00,1.00,1.00,1.00,1.00,1.00,1.00,1.00,0.50
DaySchedule,EXTERIOR_LGT_189_1_dy_2,FRACTION,No,Values:,0.50,0.50,0.50,0.50,0.50,0.50,0.50,0.50,0.50,0.50,0.50,0.50,0.50,0.50,0.50,0.50,0.50,0.50,0.50,0.50,0.50,0.50,0.50,0.50
DaySchedule,EXTERIOR_LGT_189_1_dy_3,FRACTION,No,Values:,0.50,0.50,0.50,0.50,0.50,0.50,0.50,0.50,0.50,0.50,0.50,0.50,0.50,0.50,0.50,0.50,0.50,0.50,0.50,0.50,0.50,0.50,0.50,0.50
DaySchedule,EXTERIOR_LGT_ALWAYS_ON_dy_1,FRACTION,No,Values:,1.00,1.00,1.00,1.00,1.00,1.00,1.00,1.00,1.00,1.00,1.00,1.00,1.00,1.00,1.00,1.00,1.00,1.00,1.00,1.00,1.00,1.00,1.00,1.00
DaySchedule,EXTERIOR_LIGHTING_SCHEDULE_A_dy_1,FRACTION,No,Values:,0.00,0.00,0.00,0.00,0.00,0.00,1.00,1.00,1.00,1.00,1.00,1.00,1.00,1.00,1.00,1.00,1.00,1.00,1.00,1.00,1.00,1.00,1.00,1.00
DaySchedule,EXTERIOR_LIGHTING_SCHEDULE_A_IECC2015_dy_1,FRACTION,No,Values:,0.00,0.00,0.00,0.00,0.00,0.00,0.00,1.00,1.00,1.00,1.00,1.00,1.00,1.00,1.00,1.00,1.00,1.00,1.00,0.00,0.00,0.00,0.00,0.00
DaySchedule,EXTERIOR_LIGHTING_SCHEDULE_A_IECC2015_dy_2,FRACTION,No,Values:,0.00,0.00,0.00,0.00,0.00,0.00,0.00,0.00,0.00,0.00,0.00,0.00,0.00,0.00,0.00,0.00,0.00,0.00,0.00,0.00,0.00,0.00,0.00,0.00
DaySchedule,EXTERIOR_LIGHTING_SCHEDULE_A_IECC2015_dy_3,FRACTION,No,Values:,0.00,0.00,0.00,0.00,0.00,0.00,0.00,0.00,0.00,0.00,0.00,0.00,0.00,0.00,0.00,0.00,0.00,0.00,0.00,0.00,0.00,0.00,0.00,0.00
DaySchedule,EXTERIOR_LIGHTING_SCHEDULE_B_dy_1,FRACTION,No,Values:,0.70,0.70,0.70,0.70,0.70,0.70,1.00,1.00,1.00,1.00,1.00,1.00,1.00,1.00,1.00,1.00,1.00,1.00,1.00,1.00,1.00,1.00,1.00,1.00
DaySchedule,EXTERIOR_LIGHTING_SCHEDULE_B_2016_dy_1,FRACTION,No,Values:,0.50,0.50,0.50,0.50,0.50,0.50,1.00,1.00,1.00,1.00,1.00,1.00,1.00,1.00,1.00,1.00,1.00,1.00,1.00,1.00,1.00,1.00,1.00,1.00
DaySchedule,EXTERIOR_LIGHTING_SCHEDULE_C_2016_dy_1,FRACTION,No,Values:,0.50,0.50,0.50,0.50,0.50,0.50,1.00,1.00,1.00,1.00,1.00,1.00,1.00,1.00,1.00,1.00,1.00,1.00,1.00,0.50,0.50,0.50,0.50,0.50
DaySchedule,HTGSETP_SCH_NO_OPTIMUM_dy_1,TEMPERATURE,No,Values:,15.56,15.56,15.56,15.56,15.56,15.56,21.11,21.11,21.11,21.11,21.11,21.11,21.11,21.11,21.11,21.11,21.11,21.11,21.11,15.56,15.56,15.56,15.56,15.56
DaySchedule,HTGSETP_SCH_NO_OPTIMUM_dy_2,TEMPERATURE,No,Values:,15.56,15.56,15.56,15.56,15.56,15.56,15.56,15.56,15.56,15.56,15.56,15.56,15.56,15.56,15.56,15.56,15.56,15.56,15.56,15.56,15.56,15.56,15.56,15.56
DaySchedule,HTGSETP_SCH_NO_OPTIMUM_dy_3,TEMPERATURE,No,Values:,15.56,15.56,15.56,15.56,15.56,15.56,15.56,15.56,15.56,15.56,15.56,15.56,15.56,15.56,15.56,15.56,15.56,15.56,15.56,15.56,15.56,15.56,15.56,15.56
DaySchedule,HTGSETP_SCH_NO_OPTIMUM_dy_4,TEMPERATURE,No,Values:,21.11,21.11,21.11,21.11,21.11,21.11,21.11,21.11,21.11,21.11,21.11,21.11,21.11,21.11,21.11,21.11,21.11,21.11,21.11,21.11,21.11,21.11,21.11,21.11
DaySchedule,HTGSETP_SCH_NO_OPTIMUM_dy_5,TEMPERATURE,No,Values:,15.56,15.56,15.56,15.56,15.56,15.56,15.56,15.56,15.56,15.56,15.56,15.56,15.56,15.56,15.56,15.56,15.56,15.56,15.56,15.56,15.56,15.56,15.56,15.56
DaySchedule,HTGSETP_SCH_NO_OPTIMUM_dy_6,TEMPERATURE,No,Values:,15.56,15.56,15.56,15.56,15.56,15.56,15.56,15.56,15.56,15.56,15.56,15.56,15.56,15.56,15.56,15.56,15.56,15.56,15.56,15.56,15.56,15.56,15.56,15.56
DaySchedule,HTGSETP_SCH_NO_OPTIMUM_dy_7,TEMPERATURE,No,Values:,15.56,15.56,15.56,15.56,15.56,15.56,15.56,15.56,15.56,15.56,15.56,15.56,15.56,15.56,15.56,15.56,15.56,15.56,15.56,15.56,15.56,15.56,15.56,15.56
DaySchedule,HTGSETP_SCH_NO_OPTIMUM_W_SB_dy_1,TEMPERATURE,No,Values:,15.56,15.56,15.56,15.56,15.56,15.56,21.11,21.11,21.11,21.11,20.55,21.11,20.55,21.11,20.55,21.11,21.11,21.11,21.11,15.56,15.56,15.56,15.56,15.56
DaySchedule,HTGSETP_SCH_NO_OPTIMUM_W_SB_dy_2,TEMPERATURE,No,Values:,15.56,15.56,15.56,15.56,15.56,15.56,15.56,15.56,15.56,15.56,15.56,15.56,15.56,15.56,15.56,15.56,15.56,15.56,15.56,15.56,15.56,15.56,15.56,15.56
DaySchedule,HTGSETP_SCH_NO_OPTIMUM_W_SB_dy_3,TEMPERATURE,No,Values:,15.56,15.56,15.56,15.56,15.56,15.56,15.56,15.56,15.56,15.56,15.56,15.56,15.56,15.56,15.56,15.56,15.56,15.56,15.56,15.56,15.56,15.56,15.56,15.56
DaySchedule,HTGSETP_SCH_NO_OPTIMUM_W_SB_dy_4,TEMPERATURE,No,Values:,21.11,21.11,21.11,21.11,21.11,21.11,21.11,21.11,21.11,21.11,21.11,21.11,21.11,21.11,21.11,21.11,21.11,21.11,21.11,21.11,21.11,21.11,21.11,21.11
DaySchedule,HTGSETP_SCH_NO_OPTIMUM_W_SB_dy_5,TEMPERATURE,No,Values:,15.56,15.56,15.56,15.56,15.56,15.56,15.56,15.56,15.56,15.56,15.56,15.56,15.56,15.56,15.56,15.56,15.56,15.56,15.56,15.56,15.56,15.56,15.56,15.56
DaySchedule,HTGSETP_SCH_NO_OPTIMUM_W_SB_dy_6,TEMPERATURE,No,Values:,15.56,15.56,15.56,15.56,15.56,15.56,15.56,15.56,15.56,15.56,15.56,15.56,15.56,15.56,15.56,15.56,15.56,15.56,15.56,15.56,15.56,15.56,15.56,15.56
DaySchedule,HTGSETP_SCH_NO_OPTIMUM_W_SB_dy_7,TEMPERATURE,No,Values:,15.56,15.56,15.56,15.56,15.56,15.56,15.56,15.56,15.56,15.56,15.56,15.56,15.56,15.56,15.56,15.56,15.56,15.56,15.56,15.56,15.56,15.56,15.56,15.56
DaySchedule,HTGSETP_SCH_YES_OPTIMUM_dy_1,TEMPERATURE,No,Values:,15.56,15.56,15.56,15.56,15.56,15.56,17.80,20.00,21.11,21.11,21.11,21.11,21.11,21.11,21.11,21.11,21.11,21.11,21.11,15.56,15.56,15.56,15.56,15.56
DaySchedule,HTGSETP_SCH_YES_OPTIMUM_dy_2,TEMPERATURE,No,Values:,15.56,15.56,15.56,15.56,15.56,15.56,15.56,15.56,15.56,15.56,15.56,15.56,15.56,15.56,15.56,15.56,15.56,15.56,15.56,15.56,15.56,15.56,15.56,15.56
DaySchedule,HTGSETP_SCH_YES_OPTIMUM_dy_3,TEMPERATURE,No,Values:,15.56,15.56,15.56,15.56,15.56,15.56,15.56,15.56,15.56,15.56,15.56,15.56,15.56,15.56,15.56,15.56,15.56,15.56,15.56,15.56,15.56,15.56,15.56,15.56
DaySchedule,HTGSETP_SCH_YES_OPTIMUM_dy_4,TEMPERATURE,No,Values:,21.11,21.11,21.11,21.11,21.11,21.11,21.11,21.11,21.11,21.11,21.11,21.11,21.11,21.11,21.11,21.11,21.11,21.11,21.11,21.11,21.11,21.11,21.11,21.11
DaySchedule,HTGSETP_SCH_YES_OPTIMUM_dy_5,TEMPERATURE,No,Values:,15.56,15.56,15.56,15.56,15.56,15.56,15.56,15.56,15.56,15.56,15.56,15.56,15.56,15.56,15.56,15.56,15.56,15.56,15.56,15.56,15.56,15.56,15.56,15.56
DaySchedule,HTGSETP_SCH_YES_OPTIMUM_dy_6,TEMPERATURE,No,Values:,15.56,15.56,15.56,15.56,15.56,15.56,15.56,15.56,15.56,15.56,15.56,15.56,15.56,15.56,15.56,15.56,15.56,15.56,15.56,15.56,15.56,15.56,15.56,15.56
DaySchedule,HTGSETP_SCH_YES_OPTIMUM_dy_7,TEMPERATURE,No,Values:,15.56,15.56,15.56,15.56,15.56,15.56,15.56,15.56,15.56,15.56,15.56,15.56,15.56,15.56,15.56,15.56,15.56,15.56,15.56,15.56,15.56,15.56,15.56,15.56
DaySchedule,HVACOPERATIONSCHD_dy_1,ON/OFF,No,Values:,0.00,0.00,0.00,0.00,0.00,0.00,1.00,1.00,1.00,1.00,1.00,1.00,1.00,1.00,1.00,1.00,1.00,1.00,1.00,0.00,0.00,0.00,0.00,0.00
DaySchedule,HVACOPERATIONSCHD_dy_2,ON/OFF,No,Values:,0.00,0.00,0.00,0.00,0.00,0.00,0.00,0.00,0.00,0.00,0.00,0.00,0.00,0.00,0.00,0.00,0.00,0.00,0.00,0.00,0.00,0.00,0.00,0.00
DaySchedule,HVACOPERATIONSCHD_dy_3,ON/OFF,No,Values:,0.00,0.00,0.00,0.00,0.00,0.00,0.00,0.00,0.00,0.00,0.00,0.00,0.00,0.00,0.00,0.00,0.00,0.00,0.00,0.00,0.00,0.00,0.00,0.00
DaySchedule,HVACOPERATIONSCHD_W_SB_dy_1,FRACTION,No,Values:,0.00,0.00,0.00,0.00,0.00,0.00,1.00,1.00,1.00,1.00,0.00,1.00,0.00,1.00,0.00,1.00,1.00,1.00,1.00,0.00,0.00,0.00,0.00,0.00
DaySchedule,HVACOPERATIONSCHD_W_SB_dy_2,FRACTION,No,Values:,0.00,0.00,0.00,0.00,0.00,0.00,0.00,0.00,0.00,0.00,0.00,0.00,0.00,0.00,0.00,0.00,0.00,0.00,0.00,0.00,0.00,0.00,0.00,0.00
DaySchedule,HVACOPERATIONSCHD_W_SB_dy_3,FRACTION,No,Values:,0.00,0.00,0.00,0.00,0.00,0.00,1.00,1.00,1.00,1.00,1.00,1.00,1.00,1.00,1.00,1.00,1.00,1.00,1.00,0.00,0.00,0.00,0.00,0.00
DaySchedule,HVACOPERATIONSCHD_W_SB_dy_4,FRACTION,No,Values:,0.00,0.00,0.00,0.00,0.00,0.00,0.00,0.00,0.00,0.00,0.00,0.00,0.00,0.00,0.00,0.00,0.00,0.00,0.00,0.00,0.00,0.00,0.00,0.00
DaySchedule,HVACOPERATIONSCHD_W_SB_dy_5,FRACTION,No,Values:,0.00,0.00,0.00,0.00,0.00,0.00,0.00,0.00,0.00,0.00,0.00,0.00,0.00,0.00,0.00,0.00,0.00,0.00,0.00,0.00,0.00,0.00,0.00,0.00
DaySchedule,HW-LOOP-TEMP-SCHEDULE_dy_1,TEMPERATURE,No,Values:,60.00,60.00,60.00,60.00,60.00,60.00,60.00,60.00,60.00,60.00,60.00,60.00,60.00,60.00,60.00,60.00,60.00,60.00,60.00,60.00,60.00,60.00,60.00,60.00
DaySchedule,HEATING-SUPPLY-AIR-TEMP-SCH_dy_1,TEMPERATURE,No,Values:,16.00,16.00,16.00,16.00,16.00,16.00,16.00,16.00,16.00,16.00,16.00,16.00,16.00,16.00,16.00,16.00,16.00,16.00,16.00,16.00,16.00,16.00,16.00,16.00
DaySchedule,HUMIDITY SETPOINT SCHEDULE_dy_1,HUMIDITY,No,Values:,50.00,50.00,50.00,50.00,50.00,50.00,50.00,50.00,50.00,50.00,50.00,50.00,50.00,50.00,50.00,50.00,50.00,50.00,50.00,50.00,50.00,50.00,50.00,50.00
DaySchedule,HUMIDITY SETPOINT SCHEDULE_dy_2,HUMIDITY,No,Values:,50.00,50.00,50.00,50.00,50.00,50.00,50.00,50.00,50.00,50.00,50.00,50.00,50.00,50.00,50.00,50.00,50.00,50.00,50.00,50.00,50.00,50.00,50.00,50.00
DaySchedule,HUMIDITY SETPOINT SCHEDULE_dy_3,HUMIDITY,No,Values:,50.00,50.00,50.00,50.00,50.00,50.00,50.00,50.00,50.00,50.00,50.00,50.00,50.00,50.00,50.00,50.00,50.00,50.00,50.00,50.00,50.00,50.00,50.00,50.00
DaySchedule,INFIL_DOOR_OPENING_SCH_dy_1,FRACTION,No,Values:,0.00,0.00,0.00,0.00,0.00,0.00,0.13,1.00,0.13,0.13,0.13,0.13,1.00,0.13,0.13,0.13,0.13,1.00,0.13,0.00,0.00,0.00,0.00,0.00
DaySchedule,INFIL_DOOR_OPENING_SCH_dy_2,FRACTION,No,Values:,0.00,0.00,0.00,0.00,0.00,0.00,0.00,0.00,0.00,0.00,0.00,0.00,0.00,0.00,0.00,0.00,0.00,0.00,0.00,0.00,0.00,0.00,0.00,0.00
DaySchedule,INFIL_QUARTER_ON_SCH_dy_1,FRACTION,No,Values:,1.00,1.00,1.00,1.00,1.00,1.00,1.00,0.25,0.25,0.25,0.25,0.25,0.25,0.25,0.25,0.25,0.25,0.25,0.25,1.00,1.00,1.00,1.00,1.00
DaySchedule,INFIL_QUARTER_ON_SCH_dy_2,FRACTION,No,Values:,1.00,1.00,1.00,1.00,1.00,1.00,1.00,0.25,0.25,0.25,0.25,0.25,0.25,0.25,0.25,0.25,0.25,0.25,1.00,1.00,1.00,1.00,1.00,1.00
DaySchedule,INFIL_QUARTER_ON_SCH_dy_3,FRACTION,No,Values:,1.00,1.00,1.00,1.00,1.00,1.00,1.00,1.00,1.00,1.00,1.00,1.00,1.00,1.00,1.00,1.00,1.00,1.00,1.00,1.00,1.00,1.00,1.00,1.00
DaySchedule,MINOA_MOTORIZEDDAMPER_SCHED_dy_1,FRACTION,No,Values:,0.00,0.00,0.00,0.00,0.00,0.00,0.00,1.00,1.00,1.00,1.00,1.00,1.00,1.00,1.00,1.00,1.00,1.00,1.00,0.00,0.00,0.00,0.00,0.00
DaySchedule,MINOA_MOTORIZEDDAMPER_SCHED_dy_2,FRACTION,No,Values:,0.00,0.00,0.00,0.00,0.00,0.00,0.00,0.00,0.00,0.00,0.00,0.00,0.00,0.00,0.00,0.00,0.00,0.00,0.00,0.00,0.00,0.00,0.00,0.00
DaySchedule,MINOA_MOTORIZEDDAMPER_SCHED_dy_3,FRACTION,No,Values:,0.00,0.00,0.00,0.00,0.00,0.00,0.00,0.00,0.00,0.00,0.00,0.00,0.00,0.00,0.00,0.00,0.00,0.00,0.00,0.00,0.00,0.00,0.00,0.00
DaySchedule,MINOA_SCHED_dy_1,FRACTION,No,Values:,1.00,1.00,1.00,1.00,1.00,1.00,1.00,1.00,1.00,1.00,1.00,1.00,1.00,1.00,1.00,1.00,1.00,1.00,1.00,1.00,1.00,1.00,1.00,1.00
DaySchedule,PLANTONSCHED_dy_1,ON/OFF,No,Values:,1.00,1.00,1.00,1.00,1.00,1.00,1.00,1.00,1.00,1.00,1.00,1.00,1.00,1.00,1.00,1.00,1.00,1.00,1.00,1.00,1.00,1.00,1.00,1.00
DaySchedule,REHEATCOILAVAILSCHED_dy_1,FRACTION,No,Values:,1.00,1.00,1.00,1.00,1.00,1.00,1.00,1.00,1.00,1.00,1.00,1.00,1.00,1.00,1.00,1.00,1.00,1.00,1.00,1.00,1.00,1.00,1.00,1.00
DaySchedule,SHADING_SCH_dy_1,ANY NUMBER,No,Values:,0.00,0.00,0.00,0.00,0.00,0.00,0.00,0.00,0.00,0.00,0.00,0.00,0.00,0.00,0.00,0.00,0.00,0.00,0.00,0.00,0.00,0.00,0.00,0.00
DaySchedule,SHWSYS1 WATER HEATER AMBIENT TEMPERATURE SCHEDULE_dy_1,TEMPERATURE,No,Values:,22.00,22.00,22.00,22.00,22.00,22.00,22.00,22.00,22.00,22.00,22.00,22.00,22.00,22.00,22.00,22.00,22.00,22.00,22.00,22.00,22.00,22.00,22.00,22.00
DaySchedule,SHWSYS1 WATER HEATER SETPOINT TEMPERATURE SCHEDULE_dy_1,TEMPERATURE,No,Values:,60.00,60.00,60.00,60.00,60.00,60.00,60.00,60.00,60.00,60.00,60.00,60.00,60.00,60.00,60.00,60.00,60.00,60.00,60.00,60.00,60.00,60.00,60.00,60.00
DaySchedule,SHWSYS1-LOOP-TEMP-SCHEDULE_dy_1,TEMPERATURE,No,Values:,60.00,60.00,60.00,60.00,60.00,60.00,60.00,60.00,60.00,60.00,60.00,60.00,60.00,60.00,60.00,60.00,60.00,60.00,60.00,60.00,60.00,60.00,60.00,60.00
DaySchedule,SEASONAL-RESET-SUPPLY-AIR-TEMP-SCH_dy_1,TEMPERATURE,No,Values:,13.00,13.00,13.00,13.00,13.00,13.00,13.00,13.00,13.00,13.00,13.00,13.00,13.00,13.00,13.00,13.00,13.00,13.00,13.00,13.00,13.00,13.00,13.00,13.00
DaySchedule,SEASONAL-RESET-SUPPLY-AIR-TEMP-SCH_dy_2,TEMPERATURE,No,Values:,13.00,13.00,13.00,13.00,13.00,13.00,13.00,13.00,13.00,13.00,13.00,13.00,13.00,13.00,13.00,13.00,13.00,13.00,13.00,13.00,13.00,13.00,13.00,13.00
DaySchedule,SEASONAL-RESET-SUPPLY-AIR-TEMP-SCH_dy_3,TEMPERATURE,No,Values:,13.00,13.00,13.00,13.00,13.00,13.00,13.00,13.00,13.00,13.00,13.00,13.00,13.00,13.00,13.00,13.00,13.00,13.00,13.00,13.00,13.00,13.00,13.00,13.00
DaySchedule,WORK_EFF_SCH_dy_1,FRACTION,No,Values:,0.00,0.00,0.00,0.00,0.00,0.00,0.00,0.00,0.00,0.00,0.00,0.00,0.00,0.00,0.00,0.00,0.00,0.00,0.00,0.00,0.00,0.00,0.00,0.00
Schedule:Week:Daily,ACTIVITY_SCH_wk_1,ACTIVITY_SCH_dy_1,ACTIVITY_SCH_dy_1,ACTIVITY_SCH_dy_1,ACTIVITY_SCH_dy_1,ACTIVITY_SCH_dy_1,ACTIVITY_SCH_dy_1,ACTIVITY_SCH_dy_1,ACTIVITY_SCH_dy_1,ACTIVITY_SCH_dy_1,ACTIVITY_SCH_dy_1,ACTIVITY_SCH_dy_1,ACTIVITY_SCH_dy_1
Schedule:Week:Daily,AIR_VELO_SCH_wk_1,AIR_VELO_SCH_dy_1,AIR_VELO_SCH_dy_1,AIR_VELO_SCH_dy_1,AIR_VELO_SCH_dy_1,AIR_VELO_SCH_dy_1,AIR_VELO_SCH_dy_1,AIR_VELO_SCH_dy_1,AIR_VELO_SCH_dy_1,AIR_VELO_SCH_dy_1,AIR_VELO_SCH_dy_1,AIR_VELO_SCH_dy_1,AIR_VELO_SCH_dy_1
Schedule:Week:Daily,ALWAYS_OFF_wk_1,ALWAYS_OFF_dy_1,ALWAYS_OFF_dy_1,ALWAYS_OFF_dy_1,ALWAYS_OFF_dy_1,ALWAYS_OFF_dy_1,ALWAYS_OFF_dy_1,ALWAYS_OFF_dy_1,ALWAYS_OFF_dy_1,ALWAYS_OFF_dy_1,ALWAYS_OFF_dy_1,ALWAYS_OFF_dy_1,ALWAYS_OFF_dy_1
Schedule:Week:Daily,ALWAYS_ON_wk_1,ALWAYS_ON_dy_1,ALWAYS_ON_dy_1,ALWAYS_ON_dy_1,ALWAYS_ON_dy_1,ALWAYS_ON_dy_1,ALWAYS_ON_dy_1,ALWAYS_ON_dy_1,ALWAYS_ON_dy_1,ALWAYS_ON_dy_1,ALWAYS_ON_dy_1,ALWAYS_ON_dy_1,ALWAYS_ON_dy_1
Schedule:Week:Daily,BLDG_EQUIP_SCH_wk_1,BLDG_EQUIP_SCH_dy_2,BLDG_EQUIP_SCH_dy_1,BLDG_EQUIP_SCH_dy_1,BLDG_EQUIP_SCH_dy_1,BLDG_EQUIP_SCH_dy_1,BLDG_EQUIP_SCH_dy_1,BLDG_EQUIP_SCH_dy_2,BLDG_EQUIP_SCH_dy_3,BLDG_EQUIP_SCH_dy_5,BLDG_EQUIP_SCH_dy_4,BLDG_EQUIP_SCH_dy_6,BLDG_EQUIP_SCH_dy_7
Schedule:Week:Daily,BLDG_LIGHT_SCH_wk_1,BLDG_LIGHT_SCH_dy_2,BLDG_LIGHT_SCH_dy_1,BLDG_LIGHT_SCH_dy_1,BLDG_LIGHT_SCH_dy_1,BLDG_LIGHT_SCH_dy_1,BLDG_LIGHT_SCH_dy_1,BLDG_LIGHT_SCH_dy_2,BLDG_LIGHT_SCH_dy_3,BLDG_LIGHT_SCH_dy_5,BLDG_LIGHT_SCH_dy_4,BLDG_LIGHT_SCH_dy_6,BLDG_LIGHT_SCH_dy_7
Schedule:Week:Daily,BLDG_OCC_SCH_wk_1,BLDG_OCC_SCH_dy_2,BLDG_OCC_SCH_dy_1,BLDG_OCC_SCH_dy_1,BLDG_OCC_SCH_dy_1,BLDG_OCC_SCH_dy_1,BLDG_OCC_SCH_dy_1,BLDG_OCC_SCH_dy_2,BLDG_OCC_SCH_dy_3,BLDG_OCC_SCH_dy_5,BLDG_OCC_SCH_dy_4,BLDG_OCC_SCH_dy_6,BLDG_OCC_SCH_dy_7
Schedule:Week:Daily,BLDG_OCC_SCH_W_SB_wk_1,BLDG_OCC_SCH_W_SB_dy_2,BLDG_OCC_SCH_W_SB_dy_1,BLDG_OCC_SCH_W_SB_dy_1,BLDG_OCC_SCH_W_SB_dy_1,BLDG_OCC_SCH_W_SB_dy_1,BLDG_OCC_SCH_W_SB_dy_1,BLDG_OCC_SCH_W_SB_dy_2,BLDG_OCC_SCH_W_SB_dy_3,BLDG_OCC_SCH_W_SB_dy_5,BLDG_OCC_SCH_W_SB_dy_4,BLDG_OCC_SCH_W_SB_dy_6,BLDG_OCC_SCH_W_SB_dy_7
Schedule:Week:Daily,BLDG_OCC_SCH_WO_SB_wk_1,BLDG_OCC_SCH_WO_SB_dy_2,BLDG_OCC_SCH_WO_SB_dy_1,BLDG_OCC_SCH_WO_SB_dy_1,BLDG_OCC_SCH_WO_SB_dy_1,BLDG_OCC_SCH_WO_SB_dy_1,BLDG_OCC_SCH_WO_SB_dy_1,BLDG_OCC_SCH_WO_SB_dy_2,BLDG_OCC_SCH_WO_SB_dy_3,BLDG_OCC_SCH_WO_SB_dy_5,BLDG_OCC_SCH_WO_SB_dy_4,BLDG_OCC_SCH_WO_SB_dy_6,BLDG_OCC_SCH_WO_SB_dy_7
Schedule:Week:Daily,BLDG_SWH_SCH_wk_1,BLDG_SWH_SCH_dy_2,BLDG_SWH_SCH_dy_1,BLDG_SWH_SCH_dy_1,BLDG_SWH_SCH_dy_1,BLDG_SWH_SCH_dy_1,BLDG_SWH_SCH_dy_1,BLDG_SWH_SCH_dy_2,BLDG_SWH_SCH_dy_3,BLDG_SWH_SCH_dy_5,BLDG_SWH_SCH_dy_4,BLDG_SWH_SCH_dy_6,BLDG_SWH_SCH_dy_7
Schedule:Week:Daily,BINARY OCCUPANCY_wk_1,BINARY OCCUPANCY_dy_2,BINARY OCCUPANCY_dy_1,BINARY OCCUPANCY_dy_1,BINARY OCCUPANCY_dy_1,BINARY OCCUPANCY_dy_1,BINARY OCCUPANCY_dy_1,BINARY OCCUPANCY_dy_2,BINARY OCCUPANCY_dy_3,BINARY OCCUPANCY_dy_5,BINARY OCCUPANCY_dy_4,BINARY OCCUPANCY_dy_6,BINARY OCCUPANCY_dy_7
Schedule:Week:Daily,CLGSETP_SCH_NO_OPTIMUM_wk_1,CLGSETP_SCH_NO_OPTIMUM_dy_2,CLGSETP_SCH_NO_OPTIMUM_dy_1,CLGSETP_SCH_NO_OPTIMUM_dy_1,CLGSETP_SCH_NO_OPTIMUM_dy_1,CLGSETP_SCH_NO_OPTIMUM_dy_1,CLGSETP_SCH_NO_OPTIMUM_dy_1,CLGSETP_SCH_NO_OPTIMUM_dy_2,CLGSETP_SCH_NO_OPTIMUM_dy_3,CLGSETP_SCH_NO_OPTIMUM_dy_5,CLGSETP_SCH_NO_OPTIMUM_dy_4,CLGSETP_SCH_NO_OPTIMUM_dy_6,CLGSETP_SCH_NO_OPTIMUM_dy_7
Schedule:Week:Daily,CLGSETP_SCH_NO_OPTIMUM_W_SB_wk_1,CLGSETP_SCH_NO_OPTIMUM_W_SB_dy_2,CLGSETP_SCH_NO_OPTIMUM_W_SB_dy_1,CLGSETP_SCH_NO_OPTIMUM_W_SB_dy_1,CLGSETP_SCH_NO_OPTIMUM_W_SB_dy_1,CLGSETP_SCH_NO_OPTIMUM_W_SB_dy_1,CLGSETP_SCH_NO_OPTIMUM_W_SB_dy_1,CLGSETP_SCH_NO_OPTIMUM_W_SB_dy_2,CLGSETP_SCH_NO_OPTIMUM_W_SB_dy_3,CLGSETP_SCH_NO_OPTIMUM_W_SB_dy_5,CLGSETP_SCH_NO_OPTIMUM_W_SB_dy_4,CLGSETP_SCH_NO_OPTIMUM_W_SB_dy_6,CLGSETP_SCH_NO_OPTIMUM_W_SB_dy_7
Schedule:Week:Daily,CLGSETP_SCH_NO_SETBACK_wk_1,CLGSETP_SCH_NO_SETBACK_dy_2,CLGSETP_SCH_NO_SETBACK_dy_1,CLGSETP_SCH_NO_SETBACK_dy_1,CLGSETP_SCH_NO_SETBACK_dy_1,CLGSETP_SCH_NO_SETBACK_dy_1,CLGSETP_SCH_NO_SETBACK_dy_1,CLGSETP_SCH_NO_SETBACK_dy_2,CLGSETP_SCH_NO_SETBACK_dy_3,CLGSETP_SCH_NO_SETBACK_dy_5,CLGSETP_SCH_NO_SETBACK_dy_4,CLGSETP_SCH_NO_SETBACK_dy_6,CLGSETP_SCH_NO_SETBACK_dy_7
Schedule:Week:Daily,CLGSETP_SCH_YES_OPTIMUM_wk_1,CLGSETP_SCH_YES_OPTIMUM_dy_2,CLGSETP_SCH_YES_OPTIMUM_dy_1,CLGSETP_SCH_YES_OPTIMUM_dy_1,CLGSETP_SCH_YES_OPTIMUM_dy_1,CLGSETP_SCH_YES_OPTIMUM_dy_1,CLGSETP_SCH_YES_OPTIMUM_dy_1,CLGSETP_SCH_YES_OPTIMUM_dy_2,CLGSETP_SCH_YES_OPTIMUM_dy_3,CLGSETP_SCH_YES_OPTIMUM_dy_5,CLGSETP_SCH_YES_OPTIMUM_dy_4,CLGSETP_SCH_YES_OPTIMUM_dy_6,CLGSETP_SCH_YES_OPTIMUM_dy_7
Schedule:Week:Daily,CLOTHING_SCH_wk_1,CLOTHING_SCH_dy_1,CLOTHING_SCH_dy_1,CLOTHING_SCH_dy_1,CLOTHING_SCH_dy_1,CLOTHING_SCH_dy_1,CLOTHING_SCH_dy_1,CLOTHING_SCH_dy_1,CLOTHING_SCH_dy_1,CLOTHING_SCH_dy_1,CLOTHING_SCH_dy_1,CLOTHING_SCH_dy_1,CLOTHING_SCH_dy_1
Schedule:Week:Daily,CLOTHING_SCH_wk_2,CLOTHING_SCH_dy_2,CLOTHING_SCH_dy_2,CLOTHING_SCH_dy_2,CLOTHING_SCH_dy_2,CLOTHING_SCH_dy_2,CLOTHING_SCH_dy_2,CLOTHING_SCH_dy_2,CLOTHING_SCH_dy_2,CLOTHING_SCH_dy_2,CLOTHING_SCH_dy_2,CLOTHING_SCH_dy_2,CLOTHING_SCH_dy_2
Schedule:Week:Daily,CLOTHING_SCH_wk_3,CLOTHING_SCH_dy_3,CLOTHING_SCH_dy_3,CLOTHING_SCH_dy_3,CLOTHING_SCH_dy_3,CLOTHING_SCH_dy_3,CLOTHING_SCH_dy_3,CLOTHING_SCH_dy_3,CLOTHING_SCH_dy_3,CLOTHING_SCH_dy_3,CLOTHING_SCH_dy_3,CLOTHING_SCH_dy_3,CLOTHING_SCH_dy_3
Schedule:Week:Daily,CW-LOOP-TEMP-SCHEDULE_wk_1,CW-LOOP-TEMP-SCHEDULE_dy_1,CW-LOOP-TEMP-SCHEDULE_dy_1,CW-LOOP-TEMP-SCHEDULE_dy_1,CW-LOOP-TEMP-SCHEDULE_dy_1,CW-LOOP-TEMP-SCHEDULE_dy_1,CW-LOOP-TEMP-SCHEDULE_dy_1,CW-LOOP-TEMP-SCHEDULE_dy_1,CW-LOOP-TEMP-SCHEDULE_dy_1,CW-LOOP-TEMP-SCHEDULE_dy_1,CW-LOOP-TEMP-SCHEDULE_dy_1,CW-LOOP-TEMP-SCHEDULE_dy_1,CW-LOOP-TEMP-SCHEDULE_dy_1
Schedule:Week:Daily,COOLINGCOILAVAILSCHED_wk_1,COOLINGCOILAVAILSCHED_dy_1,COOLINGCOILAVAILSCHED_dy_1,COOLINGCOILAVAILSCHED_dy_1,COOLINGCOILAVAILSCHED_dy_1,COOLINGCOILAVAILSCHED_dy_1,COOLINGCOILAVAILSCHED_dy_1,COOLINGCOILAVAILSCHED_dy_1,COOLINGCOILAVAILSCHED_dy_1,COOLINGCOILAVAILSCHED_dy_1,COOLINGCOILAVAILSCHED_dy_1,COOLINGCOILAVAILSCHED_dy_1,COOLINGCOILAVAILSCHED_dy_1
Schedule:Week:Daily,CORE_ZN WATER EQUIPMENT HOT SUPPLY TEMP SCHED_wk_1,CORE_ZN WATER EQUIPMENT HOT SUPPLY TEMP SCHED_dy_1,CORE_ZN WATER EQUIPMENT HOT SUPPLY TEMP SCHED_dy_1,CORE_ZN WATER EQUIPMENT HOT SUPPLY TEMP SCHED_dy_1,CORE_ZN WATER EQUIPMENT HOT SUPPLY TEMP SCHED_dy_1,CORE_ZN WATER EQUIPMENT HOT SUPPLY TEMP SCHED_dy_1,CORE_ZN WATER EQUIPMENT HOT SUPPLY TEMP SCHED_dy_1,CORE_ZN WATER EQUIPMENT HOT SUPPLY TEMP SCHED_dy_1,CORE_ZN WATER EQUIPMENT HOT SUPPLY TEMP SCHED_dy_1,CORE_ZN WATER EQUIPMENT HOT SUPPLY TEMP SCHED_dy_1,CORE_ZN WATER EQUIPMENT HOT SUPPLY TEMP SCHED_dy_1,CORE_ZN WATER EQUIPMENT HOT SUPPLY TEMP SCHED_dy_1,CORE_ZN WATER EQUIPMENT HOT SUPPLY TEMP SCHED_dy_1
Schedule:Week:Daily,CORE_ZN WATER EQUIPMENT LATENT FRACT SCHED_wk_1,CORE_ZN WATER EQUIPMENT LATENT FRACT SCHED_dy_1,CORE_ZN WATER EQUIPMENT LATENT FRACT SCHED_dy_1,CORE_ZN WATER EQUIPMENT LATENT FRACT SCHED_dy_1,CORE_ZN WATER EQUIPMENT LATENT FRACT SCHED_dy_1,CORE_ZN WATER EQUIPMENT LATENT FRACT SCHED_dy_1,CORE_ZN WATER EQUIPMENT LATENT FRACT SCHED_dy_1,CORE_ZN WATER EQUIPMENT LATENT FRACT SCHED_dy_1,CORE_ZN WATER EQUIPMENT LATENT FRACT SCHED_dy_1,CORE_ZN WATER EQUIPMENT LATENT FRACT SCHED_dy_1,CORE_ZN WATER EQUIPMENT LATENT FRACT SCHED_dy_1,CORE_ZN WATER EQUIPMENT LATENT FRACT SCHED_dy_1,CORE_ZN WATER EQUIPMENT LATENT FRACT SCHED_dy_1
Schedule:Week:Daily,CORE_ZN WATER EQUIPMENT SENSIBLE FRACT SCHED_wk_1,CORE_ZN WATER EQUIPMENT SENSIBLE FRACT SCHED_dy_1,CORE_ZN WATER EQUIPMENT SENSIBLE FRACT SCHED_dy_1,CORE_ZN WATER EQUIPMENT SENSIBLE FRACT SCHED_dy_1,CORE_ZN WATER EQUIPMENT SENSIBLE FRACT SCHED_dy_1,CORE_ZN WATER EQUIPMENT SENSIBLE FRACT SCHED_dy_1,CORE_ZN WATER EQUIPMENT SENSIBLE FRACT SCHED_dy_1,CORE_ZN WATER EQUIPMENT SENSIBLE FRACT SCHED_dy_1,CORE_ZN WATER EQUIPMENT SENSIBLE FRACT SCHED_dy_1,CORE_ZN WATER EQUIPMENT SENSIBLE FRACT SCHED_dy_1,CORE_ZN WATER EQUIPMENT SENSIBLE FRACT SCHED_dy_1,CORE_ZN WATER EQUIPMENT SENSIBLE FRACT SCHED_dy_1,CORE_ZN WATER EQUIPMENT SENSIBLE FRACT SCHED_dy_1
Schedule:Week:Daily,DUAL ZONE CONTROL TYPE SCHED_wk_1,DUAL ZONE CONTROL TYPE SCHED_dy_1,DUAL ZONE CONTROL TYPE SCHED_dy_1,DUAL ZONE CONTROL TYPE SCHED_dy_1,DUAL ZONE CONTROL TYPE SCHED_dy_1,DUAL ZONE CONTROL TYPE SCHED_dy_1,DUAL ZONE CONTROL TYPE SCHED_dy_1,DUAL ZONE CONTROL TYPE SCHED_dy_1,DUAL ZONE CONTROL TYPE SCHED_dy_1,DUAL ZONE CONTROL TYPE SCHED_dy_1,DUAL ZONE CONTROL TYPE SCHED_dy_1,DUAL ZONE CONTROL TYPE SCHED_dy_1,DUAL ZONE CONTROL TYPE SCHED_dy_1
Schedule:Week:Daily,EXTERIOR_LGT_189_1_wk_1,EXTERIOR_LGT_189_1_dy_3,EXTERIOR_LGT_189_1_dy_1,EXTERIOR_LGT_189_1_dy_1,EXTERIOR_LGT_189_1_dy_1,EXTERIOR_LGT_189_1_dy_1,EXTERIOR_LGT_189_1_dy_1,EXTERIOR_LGT_189_1_dy_2,EXTERIOR_LGT_189_1_dy_3,EXTERIOR_LGT_189_1_dy_3,EXTERIOR_LGT_189_1_dy_3,EXTERIOR_LGT_189_1_dy_3,EXTERIOR_LGT_189_1_dy_3
Schedule:Week:Daily,EXTERIOR_LGT_ALWAYS_ON_wk_1,EXTERIOR_LGT_ALWAYS_ON_dy_1,EXTERIOR_LGT_ALWAYS_ON_dy_1,EXTERIOR_LGT_ALWAYS_ON_dy_1,EXTERIOR_LGT_ALWAYS_ON_dy_1,EXTERIOR_LGT_ALWAYS_ON_dy_1,EXTERIOR_LGT_ALWAYS_ON_dy_1,EXTERIOR_LGT_ALWAYS_ON_dy_1,EXTERIOR_LGT_ALWAYS_ON_dy_1,EXTERIOR_LGT_ALWAYS_ON_dy_1,EXTERIOR_LGT_ALWAYS_ON_dy_1,EXTERIOR_LGT_ALWAYS_ON_dy_1,EXTERIOR_LGT_ALWAYS_ON_dy_1
Schedule:Week:Daily,EXTERIOR_LIGHTING_SCHEDULE_A_wk_1,EXTERIOR_LIGHTING_SCHEDULE_A_dy_1,EXTERIOR_LIGHTING_SCHEDULE_A_dy_1,EXTERIOR_LIGHTING_SCHEDULE_A_dy_1,EXTERIOR_LIGHTING_SCHEDULE_A_dy_1,EXTERIOR_LIGHTING_SCHEDULE_A_dy_1,EXTERIOR_LIGHTING_SCHEDULE_A_dy_1,EXTERIOR_LIGHTING_SCHEDULE_A_dy_1,EXTERIOR_LIGHTING_SCHEDULE_A_dy_1,EXTERIOR_LIGHTING_SCHEDULE_A_dy_1,EXTERIOR_LIGHTING_SCHEDULE_A_dy_1,EXTERIOR_LIGHTING_SCHEDULE_A_dy_1,EXTERIOR_LIGHTING_SCHEDULE_A_dy_1
Schedule:Week:Daily,EXTERIOR_LIGHTING_SCHEDULE_A_IECC2015_wk_1,EXTERIOR_LIGHTING_SCHEDULE_A_IECC2015_dy_3,EXTERIOR_LIGHTING_SCHEDULE_A_IECC2015_dy_1,EXTERIOR_LIGHTING_SCHEDULE_A_IECC2015_dy_1,EXTERIOR_LIGHTING_SCHEDULE_A_IECC2015_dy_1,EXTERIOR_LIGHTING_SCHEDULE_A_IECC2015_dy_1,EXTERIOR_LIGHTING_SCHEDULE_A_IECC2015_dy_1,EXTERIOR_LIGHTING_SCHEDULE_A_IECC2015_dy_2,EXTERIOR_LIGHTING_SCHEDULE_A_IECC2015_dy_3,EXTERIOR_LIGHTING_SCHEDULE_A_IECC2015_dy_1,EXTERIOR_LIGHTING_SCHEDULE_A_IECC2015_dy_3,EXTERIOR_LIGHTING_SCHEDULE_A_IECC2015_dy_3,EXTERIOR_LIGHTING_SCHEDULE_A_IECC2015_dy_3
Schedule:Week:Daily,EXTERIOR_LIGHTING_SCHEDULE_B_wk_1,EXTERIOR_LIGHTING_SCHEDULE_B_dy_1,EXTERIOR_LIGHTING_SCHEDULE_B_dy_1,EXTERIOR_LIGHTING_SCHEDULE_B_dy_1,EXTERIOR_LIGHTING_SCHEDULE_B_dy_1,EXTERIOR_LIGHTING_SCHEDULE_B_dy_1,EXTERIOR_LIGHTING_SCHEDULE_B_dy_1,EXTERIOR_LIGHTING_SCHEDULE_B_dy_1,EXTERIOR_LIGHTING_SCHEDULE_B_dy_1,EXTERIOR_LIGHTING_SCHEDULE_B_dy_1,EXTERIOR_LIGHTING_SCHEDULE_B_dy_1,EXTERIOR_LIGHTING_SCHEDULE_B_dy_1,EXTERIOR_LIGHTING_SCHEDULE_B_dy_1
Schedule:Week:Daily,EXTERIOR_LIGHTING_SCHEDULE_B_2016_wk_1,EXTERIOR_LIGHTING_SCHEDULE_B_2016_dy_1,EXTERIOR_LIGHTING_SCHEDULE_B_2016_dy_1,EXTERIOR_LIGHTING_SCHEDULE_B_2016_dy_1,EXTERIOR_LIGHTING_SCHEDULE_B_2016_dy_1,EXTERIOR_LIGHTING_SCHEDULE_B_2016_dy_1,EXTERIOR_LIGHTING_SCHEDULE_B_2016_dy_1,EXTERIOR_LIGHTING_SCHEDULE_B_2016_dy_1,EXTERIOR_LIGHTING_SCHEDULE_B_2016_dy_1,EXTERIOR_LIGHTING_SCHEDULE_B_2016_dy_1,EXTERIOR_LIGHTING_SCHEDULE_B_2016_dy_1,EXTERIOR_LIGHTING_SCHEDULE_B_2016_dy_1,EXTERIOR_LIGHTING_SCHEDULE_B_2016_dy_1
Schedule:Week:Daily,EXTERIOR_LIGHTING_SCHEDULE_C_2016_wk_1,EXTERIOR_LIGHTING_SCHEDULE_C_2016_dy_1,EXTERIOR_LIGHTING_SCHEDULE_C_2016_dy_1,EXTERIOR_LIGHTING_SCHEDULE_C_2016_dy_1,EXTERIOR_LIGHTING_SCHEDULE_C_2016_dy_1,EXTERIOR_LIGHTING_SCHEDULE_C_2016_dy_1,EXTERIOR_LIGHTING_SCHEDULE_C_2016_dy_1,EXTERIOR_LIGHTING_SCHEDULE_C_2016_dy_1,EXTERIOR_LIGHTING_SCHEDULE_C_2016_dy_1,EXTERIOR_LIGHTING_SCHEDULE_C_2016_dy_1,EXTERIOR_LIGHTING_SCHEDULE_C_2016_dy_1,EXTERIOR_LIGHTING_SCHEDULE_C_2016_dy_1,EXTERIOR_LIGHTING_SCHEDULE_C_2016_dy_1
Schedule:Week:Daily,HTGSETP_SCH_NO_OPTIMUM_wk_1,HTGSETP_SCH_NO_OPTIMUM_dy_2,HTGSETP_SCH_NO_OPTIMUM_dy_1,HTGSETP_SCH_NO_OPTIMUM_dy_1,HTGSETP_SCH_NO_OPTIMUM_dy_1,HTGSETP_SCH_NO_OPTIMUM_dy_1,HTGSETP_SCH_NO_OPTIMUM_dy_1,HTGSETP_SCH_NO_OPTIMUM_dy_2,HTGSETP_SCH_NO_OPTIMUM_dy_3,HTGSETP_SCH_NO_OPTIMUM_dy_5,HTGSETP_SCH_NO_OPTIMUM_dy_4,HTGSETP_SCH_NO_OPTIMUM_dy_6,HTGSETP_SCH_NO_OPTIMUM_dy_7
Schedule:Week:Daily,HTGSETP_SCH_NO_OPTIMUM_W_SB_wk_1,HTGSETP_SCH_NO_OPTIMUM_W_SB_dy_2,HTGSETP_SCH_NO_OPTIMUM_W_SB_dy_1,HTGSETP_SCH_NO_OPTIMUM_W_SB_dy_1,HTGSETP_SCH_NO_OPTIMUM_W_SB_dy_1,HTGSETP_SCH_NO_OPTIMUM_W_SB_dy_1,HTGSETP_SCH_NO_OPTIMUM_W_SB_dy_1,HTGSETP_SCH_NO_OPTIMUM_W_SB_dy_2,HTGSETP_SCH_NO_OPTIMUM_W_SB_dy_3,HTGSETP_SCH_NO_OPTIMUM_W_SB_dy_5,HTGSETP_SCH_NO_OPTIMUM_W_SB_dy_4,HTGSETP_SCH_NO_OPTIMUM_W_SB_dy_6,HTGSETP_SCH_NO_OPTIMUM_W_SB_dy_7
Schedule:Week:Daily,HTGSETP_SCH_YES_OPTIMUM_wk_1,HTGSETP_SCH_YES_OPTIMUM_dy_2,HTGSETP_SCH_YES_OPTIMUM_dy_1,HTGSETP_SCH_YES_OPTIMUM_dy_1,HTGSETP_SCH_YES_OPTIMUM_dy_1,HTGSETP_SCH_YES_OPTIMUM_dy_1,HTGSETP_SCH_YES_OPTIMUM_dy_1,HTGSETP_SCH_YES_OPTIMUM_dy_2,HTGSETP_SCH_YES_OPTIMUM_dy_3,HTGSETP_SCH_YES_OPTIMUM_dy_5,HTGSETP_SCH_YES_OPTIMUM_dy_4,HTGSETP_SCH_YES_OPTIMUM_dy_6,HTGSETP_SCH_YES_OPTIMUM_dy_7
Schedule:Week:Daily,HVACOPERATIONSCHD_wk_1,HVACOPERATIONSCHD_dy_3,HVACOPERATIONSCHD_dy_1,HVACOPERATIONSCHD_dy_1,HVACOPERATIONSCHD_dy_1,HVACOPERATIONSCHD_dy_1,HVACOPERATIONSCHD_dy_1,HVACOPERATIONSCHD_dy_3,HVACOPERATIONSCHD_dy_3,HVACOPERATIONSCHD_dy_1,HVACOPERATIONSCHD_dy_2,HVACOPERATIONSCHD_dy_3,HVACOPERATIONSCHD_dy_3
Schedule:Week:Daily,HVACOPERATIONSCHD_W_SB_wk_1,HVACOPERATIONSCHD_W_SB_dy_2,HVACOPERATIONSCHD_W_SB_dy_1,HVACOPERATIONSCHD_W_SB_dy_1,HVACOPERATIONSCHD_W_SB_dy_1,HVACOPERATIONSCHD_W_SB_dy_1,HVACOPERATIONSCHD_W_SB_dy_1,HVACOPERATIONSCHD_W_SB_dy_2,HVACOPERATIONSCHD_W_SB_dy_5,HVACOPERATIONSCHD_W_SB_dy_3,HVACOPERATIONSCHD_W_SB_dy_4,HVACOPERATIONSCHD_W_SB_dy_5,HVACOPERATIONSCHD_W_SB_dy_5
Schedule:Week:Daily,HW-LOOP-TEMP-SCHEDULE_wk_1,HW-LOOP-TEMP-SCHEDULE_dy_1,HW-LOOP-TEMP-SCHEDULE_dy_1,HW-LOOP-TEMP-SCHEDULE_dy_1,HW-LOOP-TEMP-SCHEDULE_dy_1,HW-LOOP-TEMP-SCHEDULE_dy_1,HW-LOOP-TEMP-SCHEDULE_dy_1,HW-LOOP-TEMP-SCHEDULE_dy_1,HW-LOOP-TEMP-SCHEDULE_dy_1,HW-LOOP-TEMP-SCHEDULE_dy_1,HW-LOOP-TEMP-SCHEDULE_dy_1,HW-LOOP-TEMP-SCHEDULE_dy_1,HW-LOOP-TEMP-SCHEDULE_dy_1
Schedule:Week:Daily,HEATING-SUPPLY-AIR-TEMP-SCH_wk_1,HEATING-SUPPLY-AIR-TEMP-SCH_dy_1,HEATING-SUPPLY-AIR-TEMP-SCH_dy_1,HEATING-SUPPLY-AIR-TEMP-SCH_dy_1,HEATING-SUPPLY-AIR-TEMP-SCH_dy_1,HEATING-SUPPLY-AIR-TEMP-SCH_dy_1,HEATING-SUPPLY-AIR-TEMP-SCH_dy_1,HEATING-SUPPLY-AIR-TEMP-SCH_dy_1,HEATING-SUPPLY-AIR-TEMP-SCH_dy_1,HEATING-SUPPLY-AIR-TEMP-SCH_dy_1,HEATING-SUPPLY-AIR-TEMP-SCH_dy_1,HEATING-SUPPLY-AIR-TEMP-SCH_dy_1,HEATING-SUPPLY-AIR-TEMP-SCH_dy_1
Schedule:Week:Daily,HUMIDITY SETPOINT SCHEDULE_wk_1,HUMIDITY SETPOINT SCHEDULE_dy_3,HUMIDITY SETPOINT SCHEDULE_dy_1,HUMIDITY SETPOINT SCHEDULE_dy_1,HUMIDITY SETPOINT SCHEDULE_dy_1,HUMIDITY SETPOINT SCHEDULE_dy_1,HUMIDITY SETPOINT SCHEDULE_dy_1,HUMIDITY SETPOINT SCHEDULE_dy_2,HUMIDITY SETPOINT SCHEDULE_dy_3,HUMIDITY SETPOINT SCHEDULE_dy_1,HUMIDITY SETPOINT SCHEDULE_dy_2,HUMIDITY SETPOINT SCHEDULE_dy_3,HUMIDITY SETPOINT SCHEDULE_dy_3
Schedule:Week:Daily,INFIL_DOOR_OPENING_SCH_wk_1,INFIL_DOOR_OPENING_SCH_dy_2,INFIL_DOOR_OPENING_SCH_dy_1,INFIL_DOOR_OPENING_SCH_dy_1,INFIL_DOOR_OPENING_SCH_dy_1,INFIL_DOOR_OPENING_SCH_dy_1,INFIL_DOOR_OPENING_SCH_dy_1,INFIL_DOOR_OPENING_SCH_dy_2,INFIL_DOOR_OPENING_SCH_dy_2,INFIL_DOOR_OPENING_SCH_dy_2,INFIL_DOOR_OPENING_SCH_dy_2,INFIL_DOOR_OPENING_SCH_dy_2,INFIL_DOOR_OPENING_SCH_dy_2
Schedule:Week:Daily,INFIL_QUARTER_ON_SCH_wk_1,INFIL_QUARTER_ON_SCH_dy_3,INFIL_QUARTER_ON_SCH_dy_1,INFIL_QUARTER_ON_SCH_dy_1,INFIL_QUARTER_ON_SCH_dy_1,INFIL_QUARTER_ON_SCH_dy_1,INFIL_QUARTER_ON_SCH_dy_1,INFIL_QUARTER_ON_SCH_dy_2,INFIL_QUARTER_ON_SCH_dy_3,INFIL_QUARTER_ON_SCH_dy_1,INFIL_QUARTER_ON_SCH_dy_2,INFIL_QUARTER_ON_SCH_dy_3,INFIL_QUARTER_ON_SCH_dy_3
Schedule:Week:Daily,MINOA_MOTORIZEDDAMPER_SCHED_wk_1,MINOA_MOTORIZEDDAMPER_SCHED_dy_2,MINOA_MOTORIZEDDAMPER_SCHED_dy_1,MINOA_MOTORIZEDDAMPER_SCHED_dy_1,MINOA_MOTORIZEDDAMPER_SCHED_dy_1,MINOA_MOTORIZEDDAMPER_SCHED_dy_1,MINOA_MOTORIZEDDAMPER_SCHED_dy_1,MINOA_MOTORIZEDDAMPER_SCHED_dy_2,MINOA_MOTORIZEDDAMPER_SCHED_dy_3,MINOA_MOTORIZEDDAMPER_SCHED_dy_1,MINOA_MOTORIZEDDAMPER_SCHED_dy_2,MINOA_MOTORIZEDDAMPER_SCHED_dy_3,MINOA_MOTORIZEDDAMPER_SCHED_dy_3
Schedule:Week:Daily,MINOA_SCHED_wk_1,MINOA_SCHED_dy_1,MINOA_SCHED_dy_1,MINOA_SCHED_dy_1,MINOA_SCHED_dy_1,MINOA_SCHED_dy_1,MINOA_SCHED_dy_1,MINOA_SCHED_dy_1,MINOA_SCHED_dy_1,MINOA_SCHED_dy_1,MINOA_SCHED_dy_1,MINOA_SCHED_dy_1,MINOA_SCHED_dy_1
Schedule:Week:Daily,PLANTONSCHED_wk_1,PLANTONSCHED_dy_1,PLANTONSCHED_dy_1,PLANTONSCHED_dy_1,PLANTONSCHED_dy_1,PLANTONSCHED_dy_1,PLANTONSCHED_dy_1,PLANTONSCHED_dy_1,PLANTONSCHED_dy_1,PLANTONSCHED_dy_1,PLANTONSCHED_dy_1,PLANTONSCHED_dy_1,PLANTONSCHED_dy_1
Schedule:Week:Daily,REHEATCOILAVAILSCHED_wk_1,REHEATCOILAVAILSCHED_dy_1,REHEATCOILAVAILSCHED_dy_1,REHEATCOILAVAILSCHED_dy_1,REHEATCOILAVAILSCHED_dy_1,REHEATCOILAVAILSCHED_dy_1,REHEATCOILAVAILSCHED_dy_1,REHEATCOILAVAILSCHED_dy_1,REHEATCOILAVAILSCHED_dy_1,REHEATCOILAVAILSCHED_dy_1,REHEATCOILAVAILSCHED_dy_1,REHEATCOILAVAILSCHED_dy_1,REHEATCOILAVAILSCHED_dy_1
Schedule:Week:Daily,SHADING_SCH_wk_1,SHADING_SCH_dy_1,SHADING_SCH_dy_1,SHADING_SCH_dy_1,SHADING_SCH_dy_1,SHADING_SCH_dy_1,SHADING_SCH_dy_1,SHADING_SCH_dy_1,SHADING_SCH_dy_1,SHADING_SCH_dy_1,SHADING_SCH_dy_1,SHADING_SCH_dy_1,SHADING_SCH_dy_1
Schedule:Week:Daily,SHWSYS1 WATER HEATER AMBIENT TEMPERATURE SCHEDULE_wk_1,SHWSYS1 WATER HEATER AMBIENT TEMPERATURE SCHEDULE_dy_1,SHWSYS1 WATER HEATER AMBIENT TEMPERATURE SCHEDULE_dy_1,SHWSYS1 WATER HEATER AMBIENT TEMPERATURE SCHEDULE_dy_1,SHWSYS1 WATER HEATER AMBIENT TEMPERATURE SCHEDULE_dy_1,SHWSYS1 WATER HEATER AMBIENT TEMPERATURE SCHEDULE_dy_1,SHWSYS1 WATER HEATER AMBIENT TEMPERATURE SCHEDULE_dy_1,SHWSYS1 WATER HEATER AMBIENT TEMPERATURE SCHEDULE_dy_1,SHWSYS1 WATER HEATER AMBIENT TEMPERATURE SCHEDULE_dy_1,SHWSYS1 WATER HEATER AMBIENT TEMPERATURE SCHEDULE_dy_1,SHWSYS1 WATER HEATER AMBIENT TEMPERATURE SCHEDULE_dy_1,SHWSYS1 WATER HEATER AMBIENT TEMPERATURE SCHEDULE_dy_1,SHWSYS1 WATER HEATER AMBIENT TEMPERATURE SCHEDULE_dy_1
Schedule:Week:Daily,SHWSYS1 WATER HEATER SETPOINT TEMPERATURE SCHEDULE_wk_1,SHWSYS1 WATER HEATER SETPOINT TEMPERATURE SCHEDULE_dy_1,SHWSYS1 WATER HEATER SETPOINT TEMPERATURE SCHEDULE_dy_1,SHWSYS1 WATER HEATER SETPOINT TEMPERATURE SCHEDULE_dy_1,SHWSYS1 WATER HEATER SETPOINT TEMPERATURE SCHEDULE_dy_1,SHWSYS1 WATER HEATER SETPOINT TEMPERATURE SCHEDULE_dy_1,SHWSYS1 WATER HEATER SETPOINT TEMPERATURE SCHEDULE_dy_1,SHWSYS1 WATER HEATER SETPOINT TEMPERATURE SCHEDULE_dy_1,SHWSYS1 WATER HEATER SETPOINT TEMPERATURE SCHEDULE_dy_1,SHWSYS1 WATER HEATER SETPOINT TEMPERATURE SCHEDULE_dy_1,SHWSYS1 WATER HEATER SETPOINT TEMPERATURE SCHEDULE_dy_1,SHWSYS1 WATER HEATER SETPOINT TEMPERATURE SCHEDULE_dy_1,SHWSYS1 WATER HEATER SETPOINT TEMPERATURE SCHEDULE_dy_1
Schedule:Week:Daily,SHWSYS1-LOOP-TEMP-SCHEDULE_wk_1,SHWSYS1-LOOP-TEMP-SCHEDULE_dy_1,SHWSYS1-LOOP-TEMP-SCHEDULE_dy_1,SHWSYS1-LOOP-TEMP-SCHEDULE_dy_1,SHWSYS1-LOOP-TEMP-SCHEDULE_dy_1,SHWSYS1-LOOP-TEMP-SCHEDULE_dy_1,SHWSYS1-LOOP-TEMP-SCHEDULE_dy_1,SHWSYS1-LOOP-TEMP-SCHEDULE_dy_1,SHWSYS1-LOOP-TEMP-SCHEDULE_dy_1,SHWSYS1-LOOP-TEMP-SCHEDULE_dy_1,SHWSYS1-LOOP-TEMP-SCHEDULE_dy_1,SHWSYS1-LOOP-TEMP-SCHEDULE_dy_1,SHWSYS1-LOOP-TEMP-SCHEDULE_dy_1
Schedule:Week:Daily,SEASONAL-RESET-SUPPLY-AIR-TEMP-SCH_wk_1,SEASONAL-RESET-SUPPLY-AIR-TEMP-SCH_dy_1,SEASONAL-RESET-SUPPLY-AIR-TEMP-SCH_dy_1,SEASONAL-RESET-SUPPLY-AIR-TEMP-SCH_dy_1,SEASONAL-RESET-SUPPLY-AIR-TEMP-SCH_dy_1,SEASONAL-RESET-SUPPLY-AIR-TEMP-SCH_dy_1,SEASONAL-RESET-SUPPLY-AIR-TEMP-SCH_dy_1,SEASONAL-RESET-SUPPLY-AIR-TEMP-SCH_dy_1,SEASONAL-RESET-SUPPLY-AIR-TEMP-SCH_dy_1,SEASONAL-RESET-SUPPLY-AIR-TEMP-SCH_dy_1,SEASONAL-RESET-SUPPLY-AIR-TEMP-SCH_dy_1,SEASONAL-RESET-SUPPLY-AIR-TEMP-SCH_dy_1,SEASONAL-RESET-SUPPLY-AIR-TEMP-SCH_dy_1
Schedule:Week:Daily,SEASONAL-RESET-SUPPLY-AIR-TEMP-SCH_wk_2,SEASONAL-RESET-SUPPLY-AIR-TEMP-SCH_dy_2,SEASONAL-RESET-SUPPLY-AIR-TEMP-SCH_dy_2,SEASONAL-RESET-SUPPLY-AIR-TEMP-SCH_dy_2,SEASONAL-RESET-SUPPLY-AIR-TEMP-SCH_dy_2,SEASONAL-RESET-SUPPLY-AIR-TEMP-SCH_dy_2,SEASONAL-RESET-SUPPLY-AIR-TEMP-SCH_dy_2,SEASONAL-RESET-SUPPLY-AIR-TEMP-SCH_dy_2,SEASONAL-RESET-SUPPLY-AIR-TEMP-SCH_dy_2,SEASONAL-RESET-SUPPLY-AIR-TEMP-SCH_dy_2,SEASONAL-RESET-SUPPLY-AIR-TEMP-SCH_dy_2,SEASONAL-RESET-SUPPLY-AIR-TEMP-SCH_dy_2,SEASONAL-RESET-SUPPLY-AIR-TEMP-SCH_dy_2
Schedule:Week:Daily,SEASONAL-RESET-SUPPLY-AIR-TEMP-SCH_wk_3,SEASONAL-RESET-SUPPLY-AIR-TEMP-SCH_dy_3,SEASONAL-RESET-SUPPLY-AIR-TEMP-SCH_dy_3,SEASONAL-RESET-SUPPLY-AIR-TEMP-SCH_dy_3,SEASONAL-RESET-SUPPLY-AIR-TEMP-SCH_dy_3,SEASONAL-RESET-SUPPLY-AIR-TEMP-SCH_dy_3,SEASONAL-RESET-SUPPLY-AIR-TEMP-SCH_dy_3,SEASONAL-RESET-SUPPLY-AIR-TEMP-SCH_dy_3,SEASONAL-RESET-SUPPLY-AIR-TEMP-SCH_dy_3,SEASONAL-RESET-SUPPLY-AIR-TEMP-SCH_dy_3,SEASONAL-RESET-SUPPLY-AIR-TEMP-SCH_dy_3,SEASONAL-RESET-SUPPLY-AIR-TEMP-SCH_dy_3,SEASONAL-RESET-SUPPLY-AIR-TEMP-SCH_dy_3
Schedule:Week:Daily,WORK_EFF_SCH_wk_1,WORK_EFF_SCH_dy_1,WORK_EFF_SCH_dy_1,WORK_EFF_SCH_dy_1,WORK_EFF_SCH_dy_1,WORK_EFF_SCH_dy_1,WORK_EFF_SCH_dy_1,WORK_EFF_SCH_dy_1,WORK_EFF_SCH_dy_1,WORK_EFF_SCH_dy_1,WORK_EFF_SCH_dy_1,WORK_EFF_SCH_dy_1,WORK_EFF_SCH_dy_1
Schedule,ACTIVITY_SCH,ANY NUMBER,Through Dec 31,ACTIVITY_SCH_wk_1
Schedule,AIR_VELO_SCH,ANY NUMBER,Through Dec 31,AIR_VELO_SCH_wk_1
Schedule,ALWAYS_OFF,FRACTION,Through Dec 31,ALWAYS_OFF_wk_1
Schedule,ALWAYS_ON,FRACTION,Through Dec 31,ALWAYS_ON_wk_1
Schedule,BLDG_EQUIP_SCH,FRACTION,Through Dec 31,BLDG_EQUIP_SCH_wk_1
Schedule,BLDG_LIGHT_SCH,FRACTION,Through Dec 31,BLDG_LIGHT_SCH_wk_1
Schedule,BLDG_OCC_SCH,FRACTION,Through Dec 31,BLDG_OCC_SCH_wk_1
Schedule,BLDG_OCC_SCH_W_SB,FRACTION,Through Dec 31,BLDG_OCC_SCH_W_SB_wk_1
Schedule,BLDG_OCC_SCH_WO_SB,FRACTION,Through Dec 31,BLDG_OCC_SCH_WO_SB_wk_1
Schedule,BLDG_SWH_SCH,FRACTION,Through Dec 31,BLDG_SWH_SCH_wk_1
Schedule,BINARY OCCUPANCY,FRACTION,Through Dec 31,BINARY OCCUPANCY_wk_1
Schedule,CLGSETP_SCH_NO_OPTIMUM,TEMPERATURE,Through Dec 31,CLGSETP_SCH_NO_OPTIMUM_wk_1
Schedule,CLGSETP_SCH_NO_OPTIMUM_W_SB,TEMPERATURE,Through Dec 31,CLGSETP_SCH_NO_OPTIMUM_W_SB_wk_1
Schedule,CLGSETP_SCH_NO_SETBACK,TEMPERATURE,Through Dec 31,CLGSETP_SCH_NO_SETBACK_wk_1
Schedule,CLGSETP_SCH_YES_OPTIMUM,TEMPERATURE,Through Dec 31,CLGSETP_SCH_YES_OPTIMUM_wk_1
Schedule,CLOTHING_SCH,ANY NUMBER,Through Apr 30,CLOTHING_SCH_wk_1,Through Sep 30,CLOTHING_SCH_wk_2,Through Dec 31,CLOTHING_SCH_wk_3
Schedule,CW-LOOP-TEMP-SCHEDULE,TEMPERATURE,Through Dec 31,CW-LOOP-TEMP-SCHEDULE_wk_1
Schedule,COOLINGCOILAVAILSCHED,FRACTION,Through Dec 31,COOLINGCOILAVAILSCHED_wk_1
Schedule,CORE_ZN WATER EQUIPMENT HOT SUPPLY TEMP SCHED,TEMPERATURE,Through Dec 31,CORE_ZN WATER EQUIPMENT HOT SUPPLY TEMP SCHED_wk_1
Schedule,CORE_ZN WATER EQUIPMENT LATENT FRACT SCHED,FRACTION,Through Dec 31,CORE_ZN WATER EQUIPMENT LATENT FRACT SCHED_wk_1
Schedule,CORE_ZN WATER EQUIPMENT SENSIBLE FRACT SCHED,FRACTION,Through Dec 31,CORE_ZN WATER EQUIPMENT SENSIBLE FRACT SCHED_wk_1
Schedule,DUAL ZONE CONTROL TYPE SCHED,CONTROL TYPE,Through Dec 31,DUAL ZONE CONTROL TYPE SCHED_wk_1
Schedule,EXTERIOR_LGT_189_1,FRACTION,Through Dec 31,EXTERIOR_LGT_189_1_wk_1
Schedule,EXTERIOR_LGT_ALWAYS_ON,FRACTION,Through Dec 31,EXTERIOR_LGT_ALWAYS_ON_wk_1
Schedule,EXTERIOR_LIGHTING_SCHEDULE_A,FRACTION,Through Dec 31,EXTERIOR_LIGHTING_SCHEDULE_A_wk_1
Schedule,EXTERIOR_LIGHTING_SCHEDULE_A_IECC2015,FRACTION,Through Dec 31,EXTERIOR_LIGHTING_SCHEDULE_A_IECC2015_wk_1
Schedule,EXTERIOR_LIGHTING_SCHEDULE_B,FRACTION,Through Dec 31,EXTERIOR_LIGHTING_SCHEDULE_B_wk_1
Schedule,EXTERIOR_LIGHTING_SCHEDULE_B_2016,FRACTION,Through Dec 31,EXTERIOR_LIGHTING_SCHEDULE_B_2016_wk_1
Schedule,EXTERIOR_LIGHTING_SCHEDULE_C_2016,FRACTION,Through Dec 31,EXTERIOR_LIGHTING_SCHEDULE_C_2016_wk_1
Schedule,HTGSETP_SCH_NO_OPTIMUM,TEMPERATURE,Through Dec 31,HTGSETP_SCH_NO_OPTIMUM_wk_1
Schedule,HTGSETP_SCH_NO_OPTIMUM_W_SB,TEMPERATURE,Through Dec 31,HTGSETP_SCH_NO_OPTIMUM_W_SB_wk_1
Schedule,HTGSETP_SCH_YES_OPTIMUM,TEMPERATURE,Through Dec 31,HTGSETP_SCH_YES_OPTIMUM_wk_1
Schedule,HVACOPERATIONSCHD,ON/OFF,Through Dec 31,HVACOPERATIONSCHD_wk_1
Schedule,HVACOPERATIONSCHD_W_SB,FRACTION,Through Dec 31,HVACOPERATIONSCHD_W_SB_wk_1
Schedule,HW-LOOP-TEMP-SCHEDULE,TEMPERATURE,Through Dec 31,HW-LOOP-TEMP-SCHEDULE_wk_1
Schedule,HEATING-SUPPLY-AIR-TEMP-SCH,TEMPERATURE,Through Dec 31,HEATING-SUPPLY-AIR-TEMP-SCH_wk_1
Schedule,HUMIDITY SETPOINT SCHEDULE,HUMIDITY,Through Dec 31,HUMIDITY SETPOINT SCHEDULE_wk_1
Schedule,INFIL_DOOR_OPENING_SCH,FRACTION,Through Dec 31,INFIL_DOOR_OPENING_SCH_wk_1
Schedule,INFIL_QUARTER_ON_SCH,FRACTION,Through Dec 31,INFIL_QUARTER_ON_SCH_wk_1
Schedule,MINOA_MOTORIZEDDAMPER_SCHED,FRACTION,Through Dec 31,MINOA_MOTORIZEDDAMPER_SCHED_wk_1
Schedule,MINOA_SCHED,FRACTION,Through Dec 31,MINOA_SCHED_wk_1
Schedule,PLANTONSCHED,ON/OFF,Through Dec 31,PLANTONSCHED_wk_1
Schedule,REHEATCOILAVAILSCHED,FRACTION,Through Dec 31,REHEATCOILAVAILSCHED_wk_1
Schedule,SHADING_SCH,ANY NUMBER,Through Dec 31,SHADING_SCH_wk_1
Schedule,SHWSYS1 WATER HEATER AMBIENT TEMPERATURE SCHEDULE,TEMPERATURE,Through Dec 31,SHWSYS1 WATER HEATER AMBIENT TEMPERATURE SCHEDULE_wk_1
Schedule,SHWSYS1 WATER HEATER SETPOINT TEMPERATURE SCHEDULE,TEMPERATURE,Through Dec 31,SHWSYS1 WATER HEATER SETPOINT TEMPERATURE SCHEDULE_wk_1
Schedule,SHWSYS1-LOOP-TEMP-SCHEDULE,TEMPERATURE,Through Dec 31,SHWSYS1-LOOP-TEMP-SCHEDULE_wk_1
Schedule,SEASONAL-RESET-SUPPLY-AIR-TEMP-SCH,TEMPERATURE,Through Mar 31,SEASONAL-RESET-SUPPLY-AIR-TEMP-SCH_wk_1,Through Sep 30,SEASONAL-RESET-SUPPLY-AIR-TEMP-SCH_wk_2,Through Dec 31,SEASONAL-RESET-SUPPLY-AIR-TEMP-SCH_wk_3
Schedule,WORK_EFF_SCH,FRACTION,Through Dec 31,WORK_EFF_SCH_wk_1
! <Building Information>, Building Name,North Axis {deg},Terrain,  Loads Convergence Tolerance Value,Temperature Convergence Tolerance Value,  Solar Distribution,Maximum Number of Warmup Days,Minimum Number of Warmup Days
 Building Information,OfficeSmall,0.000,City,4.00000E-002,0.20000,FullInteriorAndExterior,15,6
! <Inside Convection Algorithm>, Algorithm {Simple | TARP | CeilingDiffuser | AdaptiveConvectionAlgorithm}
Inside Convection Algorithm,TARP
! <Outside Convection Algorithm>, Algorithm {SimpleCombined | TARP | MoWitt | DOE-2 | AdaptiveConvectionAlgorithm}
Outside Convection Algorithm,TARP
! <Sky Radiance Distribution>, Value {Anisotropic}
Sky Radiance Distribution,Anisotropic
! <Zone Air Solution Algorithm>, Value {ThirdOrderBackwardDifference | AnalyticalSolution | EulerMethod}
 Zone Air Solution Algorithm, ThirdOrderBackwardDifference
! <Zone Air Carbon Dioxide Balance Simulation>, Simulation {Yes/No}, Carbon Dioxide Concentration
 Zone Air Carbon Dioxide Balance Simulation, No,N/A
! <Zone Air Generic Contaminant Balance Simulation>, Simulation {Yes/No}, Generic Contaminant Concentration
 Zone Air Generic Contaminant Balance Simulation, No,N/A
! <Zone Air Mass Flow Balance Simulation>, Enforce Mass Balance, Adjust Zone Mixing and Return {AdjustMixingOnly | AdjustReturnOnly | AdjustMixingThenReturn | AdjustReturnThenMixing | None}, Adjust Zone Infiltration {AddInfiltration | AdjustInfiltration | None}, Infiltration Zones {MixingSourceZonesOnly | AllZones}
 Zone Air Mass Flow Balance Simulation, No,N/A,N/A,N/A
! <HVACSystemRootFindingAlgorithm>, Value {RegulaFalsi | Bisection | BisectionThenRegulaFalsi | RegulaFalsiThenBisection}
 HVACSystemRootFindingAlgorithm, RegulaFalsi
! <Environment:Site Atmospheric Variation>,Wind Speed Profile Exponent {},Wind Speed Profile Boundary Layer Thickness {m},Air Temperature Gradient Coefficient {K/m}
Environment:Site Atmospheric Variation,0.330,460.000,6.500000E-003
! <Surface Geometry>,Starting Corner,Vertex Input Direction,Coordinate System,Daylight Reference Point Coordinate System,Rectangular (Simple) Surface Coordinate System
 Surface Geometry,UpperLeftCorner,Counterclockwise,RelativeCoordinateSystem,RelativeCoordinateSystem,RelativeToZoneOrigin
! <Surface Heat Transfer Algorithm>, Value {CTF - ConductionTransferFunction | EMPD - MoisturePenetrationDepthConductionTransferFunction | CondFD - ConductionFiniteDifference | HAMT - CombinedHeatAndMoistureFiniteElement} - Description,Inside Surface Max Temperature Limit{C}, Surface Convection Coefficient Lower Limit {W/m2-K}, Surface Convection Coefficient Upper Limit {W/m2-K}
Surface Heat Transfer Algorithm, CTF - ConductionTransferFunction,200,0.10,1000.0
! <Shading Summary>, Number of Fixed Detached Shades, Number of Building Detached Shades, Number of Attached Shades
 Shading Summary,0,0,0
! <Zone Summary>, Number of Zones, Number of Zone Surfaces, Number of SubSurfaces
 Zone Summary,6,71,23
! <Zone Information>,Zone Name,North Axis {deg},Origin X-Coordinate {m},Origin Y-Coordinate {m},Origin Z-Coordinate {m},Centroid X-Coordinate {m},Centroid Y-Coordinate {m},Centroid Z-Coordinate {m},Type,Zone Multiplier,Zone List Multiplier,Minimum X {m},Maximum X {m},Minimum Y {m},Maximum Y {m},Minimum Z {m},Maximum Z {m},Ceiling Height {m},Volume {m3},Zone Inside Convection Algorithm {Simple-Detailed-CeilingDiffuser-TrombeWall},Zone Outside Convection Algorithm {Simple-Detailed-Tarp-MoWitt-DOE-2-BLAST}, Floor Area {m2},Exterior Gross Wall Area {m2},Exterior Net Wall Area {m2},Exterior Window Area {m2}, Number of Surfaces, Number of SubSurfaces, Number of Shading SubSurfaces,  Part of Total Building Area
 Zone Information, ATTIC,0.0,0.00,0.00,0.00,13.85,9.23,3.70,1,1,1,-0.60,28.29,-0.60,19.06,3.05,6.33,1.64,720.19,TARP,TARP,567.98,0.00,0.00,0.00,13,0,0,No
 Zone Information, CORE_ZN,0.0,0.00,0.00,0.00,13.85,9.23,1.53,1,1,1,5.00,22.69,5.00,13.46,0.00,3.05,3.05,456.46,TARP,TARP,149.66,0.00,0.00,0.00,6,0,0,Yes
 Zone Information, PERIMETER_ZN_1,0.0,0.00,0.00,0.00,13.85,2.21,1.53,1,1,1,0.00,27.69,0.00,5.00,0.00,3.05,3.05,346.02,TARP,TARP,113.45,84.45,63.82,20.64,6,7,0,Yes
 Zone Information, PERIMETER_ZN_2,0.0,0.00,0.00,0.00,25.64,9.23,1.53,1,1,1,22.69,27.69,0.00,18.46,0.00,3.05,3.05,205.27,TARP,TARP,67.30,56.30,45.15,11.16,6,4,0,Yes
 Zone Information, PERIMETER_ZN_3,0.0,0.00,0.00,0.00,13.85,16.25,1.53,1,1,1,0.00,27.69,13.46,18.46,0.00,3.05,3.05,346.02,TARP,TARP,113.45,84.45,63.82,16.73,6,8,0,Yes
 Zone Information, PERIMETER_ZN_4,0.0,0.00,0.00,0.00,2.05,9.23,1.53,1,1,1,0.00,5.00,0.00,18.46,0.00,3.05,3.05,205.27,TARP,TARP,67.30,56.30,45.15,11.16,6,4,0,Yes
! <Zone Internal Gains Nominal>,Zone Name, Floor Area {m2},# Occupants,Area per Occupant {m2/person},Occupant per Area {person/m2},Interior Lighting {W/m2},Electric Load {W/m2},Gas Load {W/m2},Other Load {W/m2},Hot Water Eq {W/m2},Steam Equipment {W/m2},Sum Loads per Area {W/m2},Outdoor Controlled Baseboard Heat
 Zone Internal Gains Nominal, ATTIC,567.98,0.0,N/A,0.000,0.000,0.000,0.000,0.000,0.000,0.000,0.000,No
 Zone Internal Gains Nominal, CORE_ZN,149.66,9.0,16.588,6.028E-002,6.889,6.780,0.000,0.000,0.000,0.000,13.669,No
 Zone Internal Gains Nominal, PERIMETER_ZN_1,113.45,6.8,16.588,6.028E-002,6.889,6.780,0.000,0.000,0.000,0.000,13.669,No
 Zone Internal Gains Nominal, PERIMETER_ZN_2,67.30,4.1,16.588,6.028E-002,6.889,6.780,0.000,0.000,0.000,0.000,13.669,No
 Zone Internal Gains Nominal, PERIMETER_ZN_3,113.45,6.8,16.588,6.028E-002,6.889,6.780,0.000,0.000,0.000,0.000,13.669,No
 Zone Internal Gains Nominal, PERIMETER_ZN_4,67.30,4.1,16.588,6.028E-002,6.889,6.780,0.000,0.000,0.000,0.000,13.669,No
! <People Internal Gains Nominal>,Name,Schedule Name,Zone Name,Zone Floor Area {m2},# Zone Occupants,Number of People {},People/Floor Area {person/m2},Floor Area per person {m2/person},Fraction Radiant,Fraction Convected,Sensible Fraction Calculation,Activity level,ASHRAE 55 Warnings,Carbon Dioxide Generation Rate,Nominal Minimum Number of People,Nominal Maximum Number of People
 People Internal Gains Nominal, CORE_ZN,BLDG_OCC_SCH_WO_SB,CORE_ZN,149.66,9.0,9.0,6.028E-002,16.588,0.300,0.700,AutoCalculate,ACTIVITY_SCH,No,3.8200E-008,0,9
 People Internal Gains Nominal, PERIMETER_ZN_1,BLDG_OCC_SCH_WO_SB,PERIMETER_ZN_1,113.45,6.8,6.8,6.028E-002,16.588,0.300,0.700,AutoCalculate,ACTIVITY_SCH,No,3.8200E-008,0,7
 People Internal Gains Nominal, PERIMETER_ZN_2,BLDG_OCC_SCH_W_SB,PERIMETER_ZN_2,67.30,4.1,4.1,6.028E-002,16.588,0.300,0.700,AutoCalculate,ACTIVITY_SCH,No,3.8200E-008,0,4
 People Internal Gains Nominal, PERIMETER_ZN_3,BLDG_OCC_SCH_WO_SB,PERIMETER_ZN_3,113.45,6.8,6.8,6.028E-002,16.588,0.300,0.700,AutoCalculate,ACTIVITY_SCH,No,3.8200E-008,0,7
 People Internal Gains Nominal, PERIMETER_ZN_4,BLDG_OCC_SCH_WO_SB,PERIMETER_ZN_4,67.30,4.1,4.1,6.028E-002,16.588,0.300,0.700,AutoCalculate,ACTIVITY_SCH,No,3.8200E-008,0,4
! <Lights Internal Gains Nominal>,Name,Schedule Name,Zone Name,Zone Floor Area {m2},# Zone Occupants,Lighting Level {W},Lights/Floor Area {W/m2},Lights per person {W/person},Fraction Return Air,Fraction Radiant,Fraction Short Wave,Fraction Convected,Fraction Replaceable,End-Use Category,Nominal Minimum Lighting Level {W},Nominal Maximum Lighting Level {W}
 Lights Internal Gains Nominal, CORE_ZN_LIGHTS,BLDG_LIGHT_SCH,CORE_ZN,149.66,9.0,1030.975,6.889,114.274,0.000,0.700,0.200,0.100,1.000,LightsWired,0.000,1030.975
 Lights Internal Gains Nominal, PERIMETER_ZN_1_LIGHTS,BLDG_LIGHT_SCH,PERIMETER_ZN_1,113.45,6.8,781.546,6.889,114.274,0.000,0.700,0.200,0.100,1.000,LightsWired,0.000,781.546
 Lights Internal Gains Nominal, PERIMETER_ZN_2_LIGHTS,BLDG_LIGHT_SCH,PERIMETER_ZN_2,67.30,4.1,463.623,6.889,114.274,0.000,0.700,0.200,0.100,1.000,LightsWired,0.000,463.623
 Lights Internal Gains Nominal, PERIMETER_ZN_3_LIGHTS,BLDG_LIGHT_SCH,PERIMETER_ZN_3,113.45,6.8,781.546,6.889,114.274,0.000,0.700,0.200,0.100,1.000,LightsWired,0.000,781.546
 Lights Internal Gains Nominal, PERIMETER_ZN_4_LIGHTS,BLDG_LIGHT_SCH,PERIMETER_ZN_4,67.30,4.1,463.623,6.889,114.274,0.000,0.700,0.200,0.100,1.000,LightsWired,0.000,463.623
! <ElectricEquipment Internal Gains Nominal>,Name,Schedule Name,Zone Name,Zone Floor Area {m2},# Zone Occupants,Equipment Level {W},Equipment/Floor Area {W/m2},Equipment per person {W/person},Fraction Latent,Fraction Radiant,Fraction Lost,Fraction Convected,End-Use SubCategory,Nominal Minimum Equipment Level {W},Nominal Maximum Equipment Level {W}
 ElectricEquipment Internal Gains Nominal, CORE_ZN_MISCPLUG_EQUIP,BLDG_EQUIP_SCH,CORE_ZN,149.66,9.0,1014.677,6.780,112.467,0.000,0.000,0.000,1.000,MiscPlug,0.000,1014.677
 ElectricEquipment Internal Gains Nominal, PERIMETER_ZN_1_MISCPLUG_EQUIP,BLDG_EQUIP_SCH,PERIMETER_ZN_1,113.45,6.8,769.191,6.780,112.467,0.000,0.000,0.000,1.000,MiscPlug,0.000,769.191
 ElectricEquipment Internal Gains Nominal, PERIMETER_ZN_2_MISCPLUG_EQUIP,BLDG_EQUIP_SCH,PERIMETER_ZN_2,67.30,4.1,456.294,6.780,112.467,0.000,0.000,0.000,1.000,MiscPlug,0.000,456.294
 ElectricEquipment Internal Gains Nominal, PERIMETER_ZN_3_MISCPLUG_EQUIP,BLDG_EQUIP_SCH,PERIMETER_ZN_3,113.45,6.8,769.191,6.780,112.467,0.000,0.000,0.000,1.000,MiscPlug,0.000,769.191
 ElectricEquipment Internal Gains Nominal, PERIMETER_ZN_4_MISCPLUG_EQUIP,BLDG_EQUIP_SCH,PERIMETER_ZN_4,67.30,4.1,456.294,6.780,112.467,0.000,0.000,0.000,1.000,MiscPlug,0.000,456.294
! <Shadowing/Sun Position Calculations Annual Simulations>, Shading Calculation Method, Shading Calculation Update Frequency Method, Shading Calculation Update Frequency {days}, Maximum Figures in Shadow Overlap Calculations {}, Polygon Clipping Algorithm, Pixel Counting Resolution, Sky Diffuse Modeling Algorithm, Output External Shading Calculation Results, Disable Self-Shading Within Shading Zone Groups, Disable Self-Shading From Shading Zone Groups to Other Zones
Shadowing/Sun Position Calculations Annual Simulations,PolygonClipping,Periodic,30,200,SutherlandHodgman,512,SimpleSkyDiffuseModeling,No,No,No
! <Enclosure/Window Adjacency Daylighting Counts>, Enclosure Name, Number of Exterior Windows, Number of Exterior Windows in Adjacent Enclosures
Enclosure/Window Adjacency Daylighting Counts, PERIMETER_1_SPACE,7,0
Enclosure/Window Adjacency Daylighting Counts, PERIMETER_2_SPACE,4,0
Enclosure/Window Adjacency Daylighting Counts, PERIMETER_3_SPACE,6,0
Enclosure/Window Adjacency Daylighting Counts, PERIMETER_4_SPACE,4,0
! <Enclosure/Window Adjacency Daylighting Matrix>, Enclosure Name, Number of Adjacent Enclosures with Windows,Adjacent Enclosure Names - 1st 100 (max)
Enclosure/Window Adjacency Daylighting Matrix, PERIMETER_1_SPACE,0
Enclosure/Window Adjacency Daylighting Matrix, PERIMETER_2_SPACE,0
Enclosure/Window Adjacency Daylighting Matrix, PERIMETER_3_SPACE,0
Enclosure/Window Adjacency Daylighting Matrix, PERIMETER_4_SPACE,0
! <Water Heater Information>,Type,Name,Volume {m3},Maximum Capacity {W},Standard Rated Recovery Efficiency, Standard Rated Energy Factor
! <ZoneInfiltration Airflow Stats Nominal>,Name,Schedule Name,Zone Name, Zone Floor Area {m2}, # Zone Occupants,Design Volume Flow Rate {m3/s},Volume Flow Rate/Floor Area {m3/s-m2},Volume Flow Rate/Exterior Surface Area {m3/s-m2},ACH - Air Changes per Hour,Equation A - Constant Term Coefficient {},Equation B - Temperature Term Coefficient {1/C},Equation C - Velocity Term Coefficient {s/m}, Equation D - Velocity Squared Term Coefficient {s2/m2}
 ZoneInfiltration Airflow Stats Nominal, ATTIC_INFILTRATION,ALWAYS_ON,ATTIC,567.98,0.0,0.200,3.523E-004,3.052E-004,1.000,1.000,0.000,0.000,0.000
 ZoneInfiltration Airflow Stats Nominal, PERIMETER_ZN_1_DOOR_INFILTRATION,INFIL_DOOR_OPENING_SCH,PERIMETER_ZN_1,113.45,6.8,7.646E-002,6.739E-004,9.053E-004,0.795,1.000,0.000,0.000,0.000
 ZoneInfiltration Airflow Stats Nominal, PERIMETER_ZN_1_INFILTRATION,INFIL_QUARTER_ON_SCH,PERIMETER_ZN_1,113.45,6.8,4.805E-002,4.235E-004,5.690E-004,0.500,0.000,0.000,0.224,0.000
 ZoneInfiltration Airflow Stats Nominal, PERIMETER_ZN_2_INFILTRATION,INFIL_QUARTER_ON_SCH,PERIMETER_ZN_2,67.30,4.1,3.203E-002,4.760E-004,5.690E-004,0.562,0.000,0.000,0.224,0.000
 ZoneInfiltration Airflow Stats Nominal, PERIMETER_ZN_3_INFILTRATION,INFIL_QUARTER_ON_SCH,PERIMETER_ZN_3,113.45,6.8,4.805E-002,4.235E-004,5.438E-004,0.500,0.000,0.000,0.224,0.000
 ZoneInfiltration Airflow Stats Nominal, PERIMETER_ZN_4_INFILTRATION,INFIL_QUARTER_ON_SCH,PERIMETER_ZN_4,67.30,4.1,3.203E-002,4.760E-004,5.690E-004,0.562,0.000,0.000,0.224,0.000
! <AirFlow Model>, Simple
 AirFlow Model, Simple
! <RoomAir Model>, Zone Name, Mixing/Mundt/UCSDDV/UCSDCV/UCSDUFI/UCSDUFE/User Defined
RoomAir Model,ATTIC,Mixing/Well-Stirred
RoomAir Model,CORE_ZN,Mixing/Well-Stirred
RoomAir Model,PERIMETER_ZN_1,Mixing/Well-Stirred
RoomAir Model,PERIMETER_ZN_2,Mixing/Well-Stirred
RoomAir Model,PERIMETER_ZN_3,Mixing/Well-Stirred
RoomAir Model,PERIMETER_ZN_4,Mixing/Well-Stirred
! <AirflowNetwork Model:Control>, No Multizone or Distribution/Multizone with Distribution/Multizone without Distribution/Multizone with Distribution only during Fan Operation
AirflowNetwork Model:Control,NoMultizoneOrDistribution
! <Zone Volume Capacitance Multiplier>, Sensible Heat Capacity Multiplier, Moisture Capacity Multiplier, Carbon Dioxide Capacity Multiplier, Generic Contaminant Capacity Multiplier
Zone Volume Capacitance Multiplier,   1.000 ,   1.000,   1.000,   1.000
! <Load Timesteps in Zone Design Calculation Averaging Window>, Value
 Load Timesteps in Zone Design Calculation Averaging Window,    6
! <Heating Sizing Factor Information>, Sizing Factor ID, Value
 Heating Sizing Factor Information, Global,   1.2000    
 Heating Sizing Factor Information, Zone CORE_ZN,   1.2000    
 Heating Sizing Factor Information, Zone PERIMETER_ZN_1,   1.2000    
 Heating Sizing Factor Information, Zone PERIMETER_ZN_2,   1.2000    
 Heating Sizing Factor Information, Zone PERIMETER_ZN_3,   1.2000    
 Heating Sizing Factor Information, Zone PERIMETER_ZN_4,   1.2000    
! <Cooling Sizing Factor Information>, Sizing Factor ID, Value
 Cooling Sizing Factor Information, Global,   1.2000    
 Cooling Sizing Factor Information, Zone CORE_ZN,   1.2000    
 Cooling Sizing Factor Information, Zone PERIMETER_ZN_1,   1.2000    
 Cooling Sizing Factor Information, Zone PERIMETER_ZN_2,   1.2000    
 Cooling Sizing Factor Information, Zone PERIMETER_ZN_3,   1.2000    
 Cooling Sizing Factor Information, Zone PERIMETER_ZN_4,   1.2000    
! <Sky Daylight Factors>, Sky Type, MonthAndDay, Daylighting Control Name, Enclosure Name, Window Name, Reference Point, Daylight Factor
 Sky Daylight Factors,Clear Sky,07/21,PERIMETER_ZN_1_DAYLCTRL,PERIMETER_1_SPACE,PERIMETER_ZN_1_WALL_SOUTH_WINDOW_1,PERIMETER_ZN_1_DAYLREFPT1,9.6996E-004
 Sky Daylight Factors,Clear Sky,07/21,PERIMETER_ZN_1_DAYLCTRL,PERIMETER_1_SPACE,PERIMETER_ZN_1_WALL_SOUTH_WINDOW_1,PERIMETER_ZN_1_DAYLREFPT2,1.1252E-003
 Sky Daylight Factors,Clear Turbid Sky,07/21,PERIMETER_ZN_1_DAYLCTRL,PERIMETER_1_SPACE,PERIMETER_ZN_1_WALL_SOUTH_WINDOW_1,PERIMETER_ZN_1_DAYLREFPT1,9.1667E-004
 Sky Daylight Factors,Clear Turbid Sky,07/21,PERIMETER_ZN_1_DAYLCTRL,PERIMETER_1_SPACE,PERIMETER_ZN_1_WALL_SOUTH_WINDOW_1,PERIMETER_ZN_1_DAYLREFPT2,1.0461E-003
 Sky Daylight Factors,Intermediate Sky,07/21,PERIMETER_ZN_1_DAYLCTRL,PERIMETER_1_SPACE,PERIMETER_ZN_1_WALL_SOUTH_WINDOW_1,PERIMETER_ZN_1_DAYLREFPT1,7.0820E-004
 Sky Daylight Factors,Intermediate Sky,07/21,PERIMETER_ZN_1_DAYLCTRL,PERIMETER_1_SPACE,PERIMETER_ZN_1_WALL_SOUTH_WINDOW_1,PERIMETER_ZN_1_DAYLREFPT2,7.7979E-004
 Sky Daylight Factors,Overcast Sky,07/21,PERIMETER_ZN_1_DAYLCTRL,PERIMETER_1_SPACE,PERIMETER_ZN_1_WALL_SOUTH_WINDOW_1,PERIMETER_ZN_1_DAYLREFPT1,6.5223E-004
 Sky Daylight Factors,Overcast Sky,07/21,PERIMETER_ZN_1_DAYLCTRL,PERIMETER_1_SPACE,PERIMETER_ZN_1_WALL_SOUTH_WINDOW_1,PERIMETER_ZN_1_DAYLREFPT2,7.2860E-004
 Sky Daylight Factors,Clear Sky,07/21,PERIMETER_ZN_1_DAYLCTRL,PERIMETER_1_SPACE,PERIMETER_ZN_1_WALL_SOUTH_WINDOW_2,PERIMETER_ZN_1_DAYLREFPT1,7.3502E-003
 Sky Daylight Factors,Clear Sky,07/21,PERIMETER_ZN_1_DAYLCTRL,PERIMETER_1_SPACE,PERIMETER_ZN_1_WALL_SOUTH_WINDOW_2,PERIMETER_ZN_1_DAYLREFPT2,4.9980E-003
 Sky Daylight Factors,Clear Turbid Sky,07/21,PERIMETER_ZN_1_DAYLCTRL,PERIMETER_1_SPACE,PERIMETER_ZN_1_WALL_SOUTH_WINDOW_2,PERIMETER_ZN_1_DAYLREFPT1,6.6311E-003
 Sky Daylight Factors,Clear Turbid Sky,07/21,PERIMETER_ZN_1_DAYLCTRL,PERIMETER_1_SPACE,PERIMETER_ZN_1_WALL_SOUTH_WINDOW_2,PERIMETER_ZN_1_DAYLREFPT2,4.4790E-003
 Sky Daylight Factors,Intermediate Sky,07/21,PERIMETER_ZN_1_DAYLCTRL,PERIMETER_1_SPACE,PERIMETER_ZN_1_WALL_SOUTH_WINDOW_2,PERIMETER_ZN_1_DAYLREFPT1,4.8545E-003
 Sky Daylight Factors,Intermediate Sky,07/21,PERIMETER_ZN_1_DAYLCTRL,PERIMETER_1_SPACE,PERIMETER_ZN_1_WALL_SOUTH_WINDOW_2,PERIMETER_ZN_1_DAYLREFPT2,2.9893E-003
 Sky Daylight Factors,Overcast Sky,07/21,PERIMETER_ZN_1_DAYLCTRL,PERIMETER_1_SPACE,PERIMETER_ZN_1_WALL_SOUTH_WINDOW_2,PERIMETER_ZN_1_DAYLREFPT1,5.5619E-003
 Sky Daylight Factors,Overcast Sky,07/21,PERIMETER_ZN_1_DAYLCTRL,PERIMETER_1_SPACE,PERIMETER_ZN_1_WALL_SOUTH_WINDOW_2,PERIMETER_ZN_1_DAYLREFPT2,3.0140E-003
 Sky Daylight Factors,Clear Sky,07/21,PERIMETER_ZN_1_DAYLCTRL,PERIMETER_1_SPACE,PERIMETER_ZN_1_WALL_SOUTH_WINDOW_3,PERIMETER_ZN_1_DAYLREFPT1,6.4497E-003
 Sky Daylight Factors,Clear Sky,07/21,PERIMETER_ZN_1_DAYLCTRL,PERIMETER_1_SPACE,PERIMETER_ZN_1_WALL_SOUTH_WINDOW_3,PERIMETER_ZN_1_DAYLREFPT2,4.7621E-003
 Sky Daylight Factors,Clear Turbid Sky,07/21,PERIMETER_ZN_1_DAYLCTRL,PERIMETER_1_SPACE,PERIMETER_ZN_1_WALL_SOUTH_WINDOW_3,PERIMETER_ZN_1_DAYLREFPT1,5.8569E-003
 Sky Daylight Factors,Clear Turbid Sky,07/21,PERIMETER_ZN_1_DAYLCTRL,PERIMETER_1_SPACE,PERIMETER_ZN_1_WALL_SOUTH_WINDOW_3,PERIMETER_ZN_1_DAYLREFPT2,4.2921E-003
 Sky Daylight Factors,Intermediate Sky,07/21,PERIMETER_ZN_1_DAYLCTRL,PERIMETER_1_SPACE,PERIMETER_ZN_1_WALL_SOUTH_WINDOW_3,PERIMETER_ZN_1_DAYLREFPT1,4.2364E-003
 Sky Daylight Factors,Intermediate Sky,07/21,PERIMETER_ZN_1_DAYLCTRL,PERIMETER_1_SPACE,PERIMETER_ZN_1_WALL_SOUTH_WINDOW_3,PERIMETER_ZN_1_DAYLREFPT2,2.8551E-003
 Sky Daylight Factors,Overcast Sky,07/21,PERIMETER_ZN_1_DAYLCTRL,PERIMETER_1_SPACE,PERIMETER_ZN_1_WALL_SOUTH_WINDOW_3,PERIMETER_ZN_1_DAYLREFPT1,4.6174E-003
 Sky Daylight Factors,Overcast Sky,07/21,PERIMETER_ZN_1_DAYLCTRL,PERIMETER_1_SPACE,PERIMETER_ZN_1_WALL_SOUTH_WINDOW_3,PERIMETER_ZN_1_DAYLREFPT2,2.7846E-003
 Sky Daylight Factors,Clear Sky,07/21,PERIMETER_ZN_1_DAYLCTRL,PERIMETER_1_SPACE,PERIMETER_ZN_1_WALL_SOUTH_WINDOW_4,PERIMETER_ZN_1_DAYLREFPT1,9.6377E-004
 Sky Daylight Factors,Clear Sky,07/21,PERIMETER_ZN_1_DAYLCTRL,PERIMETER_1_SPACE,PERIMETER_ZN_1_WALL_SOUTH_WINDOW_4,PERIMETER_ZN_1_DAYLREFPT2,1.1118E-003
 Sky Daylight Factors,Clear Turbid Sky,07/21,PERIMETER_ZN_1_DAYLCTRL,PERIMETER_1_SPACE,PERIMETER_ZN_1_WALL_SOUTH_WINDOW_4,PERIMETER_ZN_1_DAYLREFPT1,9.1218E-004
 Sky Daylight Factors,Clear Turbid Sky,07/21,PERIMETER_ZN_1_DAYLCTRL,PERIMETER_1_SPACE,PERIMETER_ZN_1_WALL_SOUTH_WINDOW_4,PERIMETER_ZN_1_DAYLREFPT2,1.0368E-003
 Sky Daylight Factors,Intermediate Sky,07/21,PERIMETER_ZN_1_DAYLCTRL,PERIMETER_1_SPACE,PERIMETER_ZN_1_WALL_SOUTH_WINDOW_4,PERIMETER_ZN_1_DAYLREFPT1,7.0643E-004
 Sky Daylight Factors,Intermediate Sky,07/21,PERIMETER_ZN_1_DAYLCTRL,PERIMETER_1_SPACE,PERIMETER_ZN_1_WALL_SOUTH_WINDOW_4,PERIMETER_ZN_1_DAYLREFPT2,7.7611E-004
 Sky Daylight Factors,Overcast Sky,07/21,PERIMETER_ZN_1_DAYLCTRL,PERIMETER_1_SPACE,PERIMETER_ZN_1_WALL_SOUTH_WINDOW_4,PERIMETER_ZN_1_DAYLREFPT1,6.4694E-004
 Sky Daylight Factors,Overcast Sky,07/21,PERIMETER_ZN_1_DAYLCTRL,PERIMETER_1_SPACE,PERIMETER_ZN_1_WALL_SOUTH_WINDOW_4,PERIMETER_ZN_1_DAYLREFPT2,7.1682E-004
 Sky Daylight Factors,Clear Sky,07/21,PERIMETER_ZN_1_DAYLCTRL,PERIMETER_1_SPACE,PERIMETER_ZN_1_WALL_SOUTH_WINDOW_5,PERIMETER_ZN_1_DAYLREFPT1,8.9724E-004
[...]
 Component Sizing Information, AirLoopHVAC, PSZ-AC:2, Design Supply Air Flow Rate [m3/s], 0.31886
 Component Sizing Information, AirLoopHVAC, PSZ-AC:3, Design Supply Air Flow Rate [m3/s], 0.25585
 Component Sizing Information, AirLoopHVAC, PSZ-AC:4, Design Supply Air Flow Rate [m3/s], 0.29208
 Component Sizing Information, AirLoopHVAC, PSZ-AC:5, Design Supply Air Flow Rate [m3/s], 0.31216
 Component Sizing Information, Controller:OutdoorAir, PSZ-AC:1_OA_CONTROLLER, Maximum Outdoor Air Flow Rate [m3/s], 0.35076
 Component Sizing Information, Controller:OutdoorAir, PSZ-AC:1_OA_CONTROLLER, Minimum Outdoor Air Flow Rate [m3/s], 6.46180E-002
 Component Sizing Information, Coil:Cooling:DX:SingleSpeed, PSZ-AC:1 HEAT PUMP DX COOLING COIL, Design Size rated_air_flow_rate [m3/s], 0.35076
 Component Sizing Information, Coil:Cooling:DX:SingleSpeed, PSZ-AC:1 HEAT PUMP DX COOLING COIL, Design Size gross_rated_total_cooling_capacity [W], 5806.34196
 Component Sizing Information, Coil:Cooling:DX:SingleSpeed, PSZ-AC:1 HEAT PUMP DX COOLING COIL, Design Size gross_rated_sensible_heat_ratio, 0.80066
! <DX Cooling Coil Standard Rating Information>, Component Type, Component Name, Standard Rating (Net) Cooling Capacity {W}, Standard Rated Net COP {W/W}, EER {Btu/W-h}, SEER User {Btu/W-h}, SEER Standard {Btu/W-h}, IEER {Btu/W-h}
 DX Cooling Coil Standard Rating Information, Coil:Cooling:DX:SingleSpeed, PSZ-AC:1 HEAT PUMP DX COOLING COIL, 5531.4, 3.29, 11.22, 11.74, 11.10, 10.96
 DX Cooling Coil Standard Rating Information, Coil:Cooling:DX:SingleSpeed, PSZ-AC:1 HEAT PUMP DX COOLING COIL, 5474.9, 3.15, 10.75, 11.21, 10.91,  
 Component Sizing Information, AirLoopHVAC:UnitaryHeatPump:AirToAir, PSZ-AC:1_HEATPUMP, Supply Air Flow Rate [m3/s], 0.35076
 Component Sizing Information, AirLoopHVAC:UnitaryHeatPump:AirToAir, PSZ-AC:1_HEATPUMP, Supply Air Flow Rate During Heating Operation [m3/s], 0.35076
 Component Sizing Information, AirLoopHVAC:UnitaryHeatPump:AirToAir, PSZ-AC:1_HEATPUMP, Supply Air Flow Rate During Cooling Operation [m3/s], 0.35076
 Component Sizing Information, AirLoopHVAC:UnitaryHeatPump:AirToAir, PSZ-AC:1_HEATPUMP, Supply Air Flow Rate When No Cooling or Heating is Needed [m3/s], 0.35076
 Component Sizing Information, AirLoopHVAC:UnitaryHeatPump:AirToAir, PSZ-AC:1_HEATPUMP, Nominal Heating Capacity [W], 5806.34196
 Component Sizing Information, AirLoopHVAC:UnitaryHeatPump:AirToAir, PSZ-AC:1_HEATPUMP, Nominal Cooling Capacity [W], 5806.34196
 Component Sizing Information, AirLoopHVAC:UnitaryHeatPump:AirToAir, PSZ-AC:1_HEATPUMP, Maximum Supply Air Temperature from Supplemental Heater [C], 40.00000
 Component Sizing Information, AirLoopHVAC:UnitaryHeatPump:AirToAir, PSZ-AC:1_HEATPUMP, Supplemental Heating Coil Nominal Capacity [W], 3657.84312
 Component Sizing Information, AirLoopHVAC:UnitaryHeatPump:AirToAir, PSZ-AC:1_HEATPUMP, Fraction of Supply Air Flow That Goes Through the Controlling Zone, 1.00000
 Component Sizing Information, Fan:OnOff, PSZ-AC:1 FAN, Design Size maximum_flow_rate [m3/s], 0.35076
 Component Sizing Information, Coil:Heating:DX:SingleSpeed, PSZ-AC:1 HEAT PUMP DX HEATING COIL, Design Size rated_air_flow_rate [m3/s], 0.35076
 Component Sizing Information, Coil:Heating:DX:SingleSpeed, PSZ-AC:1 HEAT PUMP DX HEATING COIL, Design Size gross_rated_heating_capacity [W], 5806.34196
! <DX Heating Coil Standard Rating Information>, Component Type, Component Name, High Temperature Heating (net) Rating Capacity {W}, Low Temperature Heating (net) Rating Capacity {W}, HSPF {Btu/W-h}, Region Number
 DX Heating Coil Standard Rating Information, Coil:Heating:DX:SingleSpeed, PSZ-AC:1 HEAT PUMP DX HEATING COIL, 6084.6, 3388.8, 7.33, 4
 DX Heating Coil Standard Rating Information, Coil:Heating:DX:SingleSpeed, PSZ-AC:1 HEAT PUMP DX HEATING COIL, 6141.1, 3445.3, 6.63, 4
 Component Sizing Information, Coil:Heating:Fuel, PSZ-AC:1 HEAT PUMP DX SUPP HEATING COIL, Design Size nominal_capacity [W], 3657.84312
 Component Sizing Information, Controller:OutdoorAir, PSZ-AC:2_OA_CONTROLLER, Maximum Outdoor Air Flow Rate [m3/s], 0.31886
 Component Sizing Information, Controller:OutdoorAir, PSZ-AC:2_OA_CONTROLLER, Minimum Outdoor Air Flow Rate [m3/s], 4.89846E-002
 Component Sizing Information, Coil:Cooling:DX:SingleSpeed, PSZ-AC:2 HEAT PUMP DX COOLING COIL, Design Size rated_air_flow_rate [m3/s], 0.31886
 Component Sizing Information, Coil:Cooling:DX:SingleSpeed, PSZ-AC:2 HEAT PUMP DX COOLING COIL, Design Size gross_rated_total_cooling_capacity [W], 5278.19464
 Component Sizing Information, Coil:Cooling:DX:SingleSpeed, PSZ-AC:2 HEAT PUMP DX COOLING COIL, Design Size gross_rated_sensible_heat_ratio, 0.80066
 DX Cooling Coil Standard Rating Information, Coil:Cooling:DX:SingleSpeed, PSZ-AC:2 HEAT PUMP DX COOLING COIL, 5028.3, 3.29, 11.22, 11.74, 11.10, 10.96
 DX Cooling Coil Standard Rating Information, Coil:Cooling:DX:SingleSpeed, PSZ-AC:2 HEAT PUMP DX COOLING COIL, 4976.9, 3.15, 10.75, 11.21, 10.91,  
 Component Sizing Information, AirLoopHVAC:UnitaryHeatPump:AirToAir, PSZ-AC:2_HEATPUMP, Supply Air Flow Rate [m3/s], 0.31886
 Component Sizing Information, AirLoopHVAC:UnitaryHeatPump:AirToAir, PSZ-AC:2_HEATPUMP, Supply Air Flow Rate During Heating Operation [m3/s], 0.31886
 Component Sizing Information, AirLoopHVAC:UnitaryHeatPump:AirToAir, PSZ-AC:2_HEATPUMP, Supply Air Flow Rate During Cooling Operation [m3/s], 0.31886
 Component Sizing Information, AirLoopHVAC:UnitaryHeatPump:AirToAir, PSZ-AC:2_HEATPUMP, Supply Air Flow Rate When No Cooling or Heating is Needed [m3/s], 0.31886
 Component Sizing Information, AirLoopHVAC:UnitaryHeatPump:AirToAir, PSZ-AC:2_HEATPUMP, Nominal Heating Capacity [W], 5278.19464
 Component Sizing Information, AirLoopHVAC:UnitaryHeatPump:AirToAir, PSZ-AC:2_HEATPUMP, Nominal Cooling Capacity [W], 5278.19464
 Component Sizing Information, AirLoopHVAC:UnitaryHeatPump:AirToAir, PSZ-AC:2_HEATPUMP, Maximum Supply Air Temperature from Supplemental Heater [C], 40.00000
 Component Sizing Information, AirLoopHVAC:UnitaryHeatPump:AirToAir, PSZ-AC:2_HEATPUMP, Supplemental Heating Coil Nominal Capacity [W], 5198.03825
 Component Sizing Information, AirLoopHVAC:UnitaryHeatPump:AirToAir, PSZ-AC:2_HEATPUMP, Fraction of Supply Air Flow That Goes Through the Controlling Zone, 1.00000
 Component Sizing Information, Fan:OnOff, PSZ-AC:2 FAN, Design Size maximum_flow_rate [m3/s], 0.31886
 Component Sizing Information, Coil:Heating:DX:SingleSpeed, PSZ-AC:2 HEAT PUMP DX HEATING COIL, Design Size rated_air_flow_rate [m3/s], 0.31886
 Component Sizing Information, Coil:Heating:DX:SingleSpeed, PSZ-AC:2 HEAT PUMP DX HEATING COIL, Design Size gross_rated_heating_capacity [W], 5278.19464
 DX Heating Coil Standard Rating Information, Coil:Heating:DX:SingleSpeed, PSZ-AC:2 HEAT PUMP DX HEATING COIL, 5531.2, 3080.5, 7.32, 4
 DX Heating Coil Standard Rating Information, Coil:Heating:DX:SingleSpeed, PSZ-AC:2 HEAT PUMP DX HEATING COIL, 5582.5, 3131.9, 6.63, 4
 Component Sizing Information, Coil:Heating:Fuel, PSZ-AC:2 HEAT PUMP DX SUPP HEATING COIL, Design Size nominal_capacity [W], 5198.03825
 Component Sizing Information, Controller:OutdoorAir, PSZ-AC:3_OA_CONTROLLER, Maximum Outdoor Air Flow Rate [m3/s], 0.25585
 Component Sizing Information, Controller:OutdoorAir, PSZ-AC:3_OA_CONTROLLER, Minimum Outdoor Air Flow Rate [m3/s], 2.90583E-002
 Component Sizing Information, Coil:Cooling:DX:SingleSpeed, PSZ-AC:3 HEAT PUMP DX COOLING COIL, Design Size rated_air_flow_rate [m3/s], 0.25585
 Component Sizing Information, Coil:Cooling:DX:SingleSpeed, PSZ-AC:3 HEAT PUMP DX COOLING COIL, Design Size gross_rated_total_cooling_capacity [W], 4235.18269
 Component Sizing Information, Coil:Cooling:DX:SingleSpeed, PSZ-AC:3 HEAT PUMP DX COOLING COIL, Design Size gross_rated_sensible_heat_ratio, 0.80066
 DX Cooling Coil Standard Rating Information, Coil:Cooling:DX:SingleSpeed, PSZ-AC:3 HEAT PUMP DX COOLING COIL, 4034.7, 3.29, 11.22, 11.74, 11.10, 10.96
 DX Cooling Coil Standard Rating Information, Coil:Cooling:DX:SingleSpeed, PSZ-AC:3 HEAT PUMP DX COOLING COIL, 3993.5, 3.15, 10.75, 11.21, 10.91,  
 Component Sizing Information, AirLoopHVAC:UnitaryHeatPump:AirToAir, PSZ-AC:3_HEATPUMP, Supply Air Flow Rate [m3/s], 0.25585
 Component Sizing Information, AirLoopHVAC:UnitaryHeatPump:AirToAir, PSZ-AC:3_HEATPUMP, Supply Air Flow Rate During Heating Operation [m3/s], 0.25585
 Component Sizing Information, AirLoopHVAC:UnitaryHeatPump:AirToAir, PSZ-AC:3_HEATPUMP, Supply Air Flow Rate During Cooling Operation [m3/s], 0.25585
 Component Sizing Information, AirLoopHVAC:UnitaryHeatPump:AirToAir, PSZ-AC:3_HEATPUMP, Supply Air Flow Rate When No Cooling or Heating is Needed [m3/s], 0.25585
 Component Sizing Information, AirLoopHVAC:UnitaryHeatPump:AirToAir, PSZ-AC:3_HEATPUMP, Nominal Heating Capacity [W], 4235.18269
 Component Sizing Information, AirLoopHVAC:UnitaryHeatPump:AirToAir, PSZ-AC:3_HEATPUMP, Nominal Cooling Capacity [W], 4235.18269
 Component Sizing Information, AirLoopHVAC:UnitaryHeatPump:AirToAir, PSZ-AC:3_HEATPUMP, Maximum Supply Air Temperature from Supplemental Heater [C], 40.00000
 Component Sizing Information, AirLoopHVAC:UnitaryHeatPump:AirToAir, PSZ-AC:3_HEATPUMP, Supplemental Heating Coil Nominal Capacity [W], 3143.16455
 Component Sizing Information, AirLoopHVAC:UnitaryHeatPump:AirToAir, PSZ-AC:3_HEATPUMP, Fraction of Supply Air Flow That Goes Through the Controlling Zone, 1.00000
 Component Sizing Information, Fan:OnOff, PSZ-AC:3 FAN, Design Size maximum_flow_rate [m3/s], 0.25585
 Component Sizing Information, Coil:Heating:DX:SingleSpeed, PSZ-AC:3 HEAT PUMP DX HEATING COIL, Design Size rated_air_flow_rate [m3/s], 0.25585
 Component Sizing Information, Coil:Heating:DX:SingleSpeed, PSZ-AC:3 HEAT PUMP DX HEATING COIL, Design Size gross_rated_heating_capacity [W], 4235.18269
 DX Heating Coil Standard Rating Information, Coil:Heating:DX:SingleSpeed, PSZ-AC:3 HEAT PUMP DX HEATING COIL, 4438.2, 2471.8, 7.33, 4
 DX Heating Coil Standard Rating Information, Coil:Heating:DX:SingleSpeed, PSZ-AC:3 HEAT PUMP DX HEATING COIL, 4479.4, 2513.0, 6.63, 4
 Component Sizing Information, Coil:Heating:Fuel, PSZ-AC:3 HEAT PUMP DX SUPP HEATING COIL, Design Size nominal_capacity [W], 3143.16455
 Component Sizing Information, Controller:OutdoorAir, PSZ-AC:4_OA_CONTROLLER, Maximum Outdoor Air Flow Rate [m3/s], 0.29208
 Component Sizing Information, Controller:OutdoorAir, PSZ-AC:4_OA_CONTROLLER, Minimum Outdoor Air Flow Rate [m3/s], 4.89846E-002
 Component Sizing Information, Coil:Cooling:DX:SingleSpeed, PSZ-AC:4 HEAT PUMP DX COOLING COIL, Design Size rated_air_flow_rate [m3/s], 0.29208
 Component Sizing Information, Coil:Cooling:DX:SingleSpeed, PSZ-AC:4 HEAT PUMP DX COOLING COIL, Design Size gross_rated_total_cooling_capacity [W], 4835.03167
 Component Sizing Information, Coil:Cooling:DX:SingleSpeed, PSZ-AC:4 HEAT PUMP DX COOLING COIL, Design Size gross_rated_sensible_heat_ratio, 0.80066
 DX Cooling Coil Standard Rating Information, Coil:Cooling:DX:SingleSpeed, PSZ-AC:4 HEAT PUMP DX COOLING COIL, 4606.1, 3.29, 11.22, 11.74, 11.10, 10.96
 DX Cooling Coil Standard Rating Information, Coil:Cooling:DX:SingleSpeed, PSZ-AC:4 HEAT PUMP DX COOLING COIL, 4559.1, 3.15, 10.75, 11.21, 10.91,  
 Component Sizing Information, AirLoopHVAC:UnitaryHeatPump:AirToAir, PSZ-AC:4_HEATPUMP, Supply Air Flow Rate [m3/s], 0.29208
 Component Sizing Information, AirLoopHVAC:UnitaryHeatPump:AirToAir, PSZ-AC:4_HEATPUMP, Supply Air Flow Rate During Heating Operation [m3/s], 0.29208
 Component Sizing Information, AirLoopHVAC:UnitaryHeatPump:AirToAir, PSZ-AC:4_HEATPUMP, Supply Air Flow Rate During Cooling Operation [m3/s], 0.29208
 Component Sizing Information, AirLoopHVAC:UnitaryHeatPump:AirToAir, PSZ-AC:4_HEATPUMP, Supply Air Flow Rate When No Cooling or Heating is Needed [m3/s], 0.29208
 Component Sizing Information, AirLoopHVAC:UnitaryHeatPump:AirToAir, PSZ-AC:4_HEATPUMP, Nominal Heating Capacity [W], 4835.03167
 Component Sizing Information, AirLoopHVAC:UnitaryHeatPump:AirToAir, PSZ-AC:4_HEATPUMP, Nominal Cooling Capacity [W], 4835.03167
 Component Sizing Information, AirLoopHVAC:UnitaryHeatPump:AirToAir, PSZ-AC:4_HEATPUMP, Maximum Supply Air Temperature from Supplemental Heater [C], 40.00000
 Component Sizing Information, AirLoopHVAC:UnitaryHeatPump:AirToAir, PSZ-AC:4_HEATPUMP, Supplemental Heating Coil Nominal Capacity [W], 5131.88209
 Component Sizing Information, AirLoopHVAC:UnitaryHeatPump:AirToAir, PSZ-AC:4_HEATPUMP, Fraction of Supply Air Flow That Goes Through the Controlling Zone, 1.00000
 Component Sizing Information, Fan:OnOff, PSZ-AC:4 FAN, Design Size maximum_flow_rate [m3/s], 0.29208
 Component Sizing Information, Coil:Heating:DX:SingleSpeed, PSZ-AC:4 HEAT PUMP DX HEATING COIL, Design Size rated_air_flow_rate [m3/s], 0.29208
 Component Sizing Information, Coil:Heating:DX:SingleSpeed, PSZ-AC:4 HEAT PUMP DX HEATING COIL, Design Size gross_rated_heating_capacity [W], 4835.03167
 DX Heating Coil Standard Rating Information, Coil:Heating:DX:SingleSpeed, PSZ-AC:4 HEAT PUMP DX HEATING COIL, 5066.8, 2821.9, 7.34, 4
 DX Heating Coil Standard Rating Information, Coil:Heating:DX:SingleSpeed, PSZ-AC:4 HEAT PUMP DX HEATING COIL, 5113.8, 2868.9, 6.63, 4
 Component Sizing Information, Coil:Heating:Fuel, PSZ-AC:4 HEAT PUMP DX SUPP HEATING COIL, Design Size nominal_capacity [W], 5131.88209
 Component Sizing Information, Controller:OutdoorAir, PSZ-AC:5_OA_CONTROLLER, Maximum Outdoor Air Flow Rate [m3/s], 0.31216
 Component Sizing Information, Controller:OutdoorAir, PSZ-AC:5_OA_CONTROLLER, Minimum Outdoor Air Flow Rate [m3/s], 2.90583E-002
 Component Sizing Information, Coil:Cooling:DX:SingleSpeed, PSZ-AC:5 HEAT PUMP DX COOLING COIL, Design Size rated_air_flow_rate [m3/s], 0.31216
 Component Sizing Information, Coil:Cooling:DX:SingleSpeed, PSZ-AC:5 HEAT PUMP DX COOLING COIL, Design Size gross_rated_total_cooling_capacity [W], 5167.36003
 Component Sizing Information, Coil:Cooling:DX:SingleSpeed, PSZ-AC:5 HEAT PUMP DX COOLING COIL, Design Size gross_rated_sensible_heat_ratio, 0.80066
 DX Cooling Coil Standard Rating Information, Coil:Cooling:DX:SingleSpeed, PSZ-AC:5 HEAT PUMP DX COOLING COIL, 4922.7, 3.29, 11.22, 11.74, 11.10, 10.96
 DX Cooling Coil Standard Rating Information, Coil:Cooling:DX:SingleSpeed, PSZ-AC:5 HEAT PUMP DX COOLING COIL, 4872.4, 3.15, 10.75, 11.21, 10.91,  
 Component Sizing Information, AirLoopHVAC:UnitaryHeatPump:AirToAir, PSZ-AC:5_HEATPUMP, Supply Air Flow Rate [m3/s], 0.31216
 Component Sizing Information, AirLoopHVAC:UnitaryHeatPump:AirToAir, PSZ-AC:5_HEATPUMP, Supply Air Flow Rate During Heating Operation [m3/s], 0.31216
 Component Sizing Information, AirLoopHVAC:UnitaryHeatPump:AirToAir, PSZ-AC:5_HEATPUMP, Supply Air Flow Rate During Cooling Operation [m3/s], 0.31216
 Component Sizing Information, AirLoopHVAC:UnitaryHeatPump:AirToAir, PSZ-AC:5_HEATPUMP, Supply Air Flow Rate When No Cooling or Heating is Needed [m3/s], 0.31216
 Component Sizing Information, AirLoopHVAC:UnitaryHeatPump:AirToAir, PSZ-AC:5_HEATPUMP, Nominal Heating Capacity [W], 5167.36003
 Component Sizing Information, AirLoopHVAC:UnitaryHeatPump:AirToAir, PSZ-AC:5_HEATPUMP, Nominal Cooling Capacity [W], 5167.36003
 Component Sizing Information, AirLoopHVAC:UnitaryHeatPump:AirToAir, PSZ-AC:5_HEATPUMP, Maximum Supply Air Temperature from Supplemental Heater [C], 40.00000
 Component Sizing Information, AirLoopHVAC:UnitaryHeatPump:AirToAir, PSZ-AC:5_HEATPUMP, Supplemental Heating Coil Nominal Capacity [W], 3143.16455
 Component Sizing Information, AirLoopHVAC:UnitaryHeatPump:AirToAir, PSZ-AC:5_HEATPUMP, Fraction of Supply Air Flow That Goes Through the Controlling Zone, 1.00000
 Component Sizing Information, Fan:OnOff, PSZ-AC:5 FAN, Design Size maximum_flow_rate [m3/s], 0.31216
 Component Sizing Information, Coil:Heating:DX:SingleSpeed, PSZ-AC:5 HEAT PUMP DX HEATING COIL, Design Size rated_air_flow_rate [m3/s], 0.31216
 Component Sizing Information, Coil:Heating:DX:SingleSpeed, PSZ-AC:5 HEAT PUMP DX HEATING COIL, Design Size gross_rated_heating_capacity [W], 5167.36003
 DX Heating Coil Standard Rating Information, Coil:Heating:DX:SingleSpeed, PSZ-AC:5 HEAT PUMP DX HEATING COIL, 5415.0, 3015.8, 7.32, 4
 DX Heating Coil Standard Rating Information, Coil:Heating:DX:SingleSpeed, PSZ-AC:5 HEAT PUMP DX HEATING COIL, 5465.3, 3066.1, 6.63, 4
 Component Sizing Information, Coil:Heating:Fuel, PSZ-AC:5 HEAT PUMP DX SUPP HEATING COIL, Design Size nominal_capacity [W], 3143.16455
Water Heater Information,WaterHeater:Mixed,SHWSYS1 WATER HEATER,0.1514,11722.8,1.754,0.5079
 Component Sizing Information, PlantLoop, SHWSYS1, Maximum Loop Flow Rate [m3/s], 4.04800E-006
 Component Sizing Information, PlantLoop, SHWSYS1, Plant Loop Volume [m3], 4.85760E-004
 Component Sizing Information, Pump:ConstantSpeed, SHWSYS1 PUMP, Design Flow Rate [m3/s], 4.04800E-006
 Component Sizing Information, Pump:ConstantSpeed, SHWSYS1 PUMP, Design Power Consumption [W], 1.72991E-008
! <Environment>,Environment Name,Environment Type, Start Date, End Date, Start DayOfWeek, Duration {#days}, Source:Start DayOfWeek,  Use Daylight Saving, Use Holidays, Apply Weekend Holiday Rule,  Use Rain Values, Use Snow Values, Sky Temperature Model
! <Environment:Special Days>, Special Day Name, Special Day Type, Source, Start Date, Duration {#days}
! <Environment:Daylight Saving>, Daylight Saving Indicator, Source, Start Date, End Date
! <Environment:WarmupDays>, NumberofWarmupDays
Environment,RUNPERIOD 1,WeatherFileRunPeriod,01/01/2017,12/31/2017,Sunday,365,Use RunPeriod Specified Day,No,No,No,Yes,Yes,Clark and Allen
Environment:Daylight Saving,Yes,InputFile,03/12,11/05
Environment:Special Days,CHRISTMAS,Holiday,InputFile,12/25,  1Environment:Special Days,COLUMBUS DAY,Holiday,InputFile,10/09,  1Environment:Special Days,INDEPENDENCE DAY,Holiday,InputFile,07/04,  1Environment:Special Days,LABOR DAY,Holiday,InputFile,09/04,  1Environment:Special Days,MLK DAY,Holiday,InputFile,01/16,  1Environment:Special Days,MEMORIAL DAY,Holiday,InputFile,05/29,  1Environment:Special Days,NEW YEARS DAY,Holiday,InputFile,01/01,  1Environment:Special Days,PRESIDENTS DAY,Holiday,InputFile,02/20,  1Environment:Special Days,THANKSGIVING,Holiday,InputFile,11/23,  1Environment:Special Days,VETERANS DAY,Holiday,InputFile,11/11,  1Environment:WarmupDays, 12
! <Tabular Report>,Style,Unit Conversion
Tabular Report,HTML,NONE
! <Warmup Convergence Information>,Zone Name,Environment Type/Name,Average Warmup Temperature Difference {deltaC},Std Dev Warmup Temperature Difference {deltaC},Max Temperature Pass/Fail Convergence,Min Temperature Pass/Fail Convergence,Average Warmup Load Difference {W},Std Dev Warmup Load Difference {W},Heating Load Pass/Fail Convergence,Cooling Load Pass/Fail Convergence
 Warmup Convergence Information,ATTIC,RunPeriod: RUNPERIOD 1,0.4682360026,0.4594912350,Pass,Pass,0.0000000000,0.0000000000,Pass,Pass
 Warmup Convergence Information,CORE_ZN,RunPeriod: RUNPERIOD 1,2.0192082927E-002,4.1756177139E-002,Pass,Pass,0.0000000000,0.0000000000,Pass,Pass
 Warmup Convergence Information,PERIMETER_ZN_1,RunPeriod: RUNPERIOD 1,0.3632511644,0.2904231967,Pass,Pass,0.6518549493,1.1157533893,Pass,Pass
 Warmup Convergence Information,PERIMETER_ZN_2,RunPeriod: RUNPERIOD 1,0.4910995268,0.3247491405,Pass,Pass,0.8270887425,1.2106584150,Pass,Pass
 Warmup Convergence Information,PERIMETER_ZN_3,RunPeriod: RUNPERIOD 1,0.5426364930,0.3333351534,Pass,Pass,0.8494698253,0.8859524824,Pass,Pass
 Warmup Convergence Information,PERIMETER_ZN_4,RunPeriod: RUNPERIOD 1,0.5389434364,0.3347957236,Pass,Pass,0.8462277760,0.8826325613,Pass,Pass
! <Program Control Information:Threads/Parallel Sims>, Threading Supported,Maximum Number of Threads, Env Set Threads (OMP_NUM_THREADS), EP Env Set Threads (EP_OMP_NUM_THREADS), IDF Set Threads, Number of Threads Used (Interior Radiant Exchange), Number Nominal Surfaces, Number Parallel Sims
Program Control:Threads/Parallel Sims, No,1, N/A, N/A, N/A, N/A, N/A, N/A
End of Data
